***    THIS IS AN AUTOGENERATED FILE   ***
***The Requested Inputs***.include COMPONENTS/nand.cir 
.include COMPONENTS/or.cir
.include COMPONENTS/and.cir
.include COMPONENTS/and2.cir
.include COMPONENTS/delay4.cir
.include COMPONENTS/XOR.cir
.include COMPONENTS/ADJUSTNEW2.cir
.include COMPONENTS/componentsedit.cir
.include COMPONENTS/convinterface.cir
.include COMPONENTS/LSmitll_bufft_v1p5.cir
.include COMPONENTS/STOREedit.cir
.include COMPONENTS/LSmitll_DCSFQ_PTLTX_v1p5.cir
.include COMPONENTS/NEURON3.cir
.include COMPONENTS/COMP3.cir
.tran 1ps 2.0061e-07 0ps 1p
***    INPUTS  ***
IIN1 0 IN1 PWL(0 0 20P 0 1.55000e-09 0.00000e+00 1.55500e-09 2.00000e-03 1.60500e-09 2.00000e-03
+ 1.61000e-09 0.00000e+00 3.55000e-09 0.00000e+00 3.55500e-09 2.00000e-03
+ 3.60500e-09 2.00000e-03 3.61000e-09 0.00000e+00 5.55000e-09 0.00000e+00
+ 5.55500e-09 2.00000e-03 5.60500e-09 2.00000e-03 5.61000e-09 0.00000e+00
+ 7.55000e-09 0.00000e+00 7.55500e-09 2.00000e-03 7.60500e-09 2.00000e-03
+ 7.61000e-09 0.00000e+00 9.55000e-09 0.00000e+00 9.55500e-09 2.00000e-03
+ 9.60500e-09 2.00000e-03 9.61000e-09 0.00000e+00 1.15500e-08 0.00000e+00
+ 1.15550e-08 2.00000e-03 1.16050e-08 2.00000e-03 1.16100e-08 0.00000e+00
+ 1.35500e-08 0.00000e+00 1.35550e-08 2.00000e-03 1.36050e-08 2.00000e-03
+ 1.36100e-08 0.00000e+00 1.55500e-08 0.00000e+00 1.55550e-08 2.00000e-03
+ 1.56050e-08 2.00000e-03 1.56100e-08 0.00000e+00 1.75500e-08 0.00000e+00
+ 1.75550e-08 2.00000e-03 1.76050e-08 2.00000e-03 1.76100e-08 0.00000e+00
+ 1.95500e-08 0.00000e+00 1.95550e-08 2.00000e-03 1.96050e-08 2.00000e-03
+ 1.96100e-08 0.00000e+00 2.15500e-08 0.00000e+00 2.15550e-08 2.00000e-03
+ 2.16050e-08 2.00000e-03 2.16100e-08 0.00000e+00 2.35500e-08 0.00000e+00
+ 2.35550e-08 2.00000e-03 2.36050e-08 2.00000e-03 2.36100e-08 0.00000e+00
+ 2.55500e-08 0.00000e+00 2.55550e-08 2.00000e-03 2.56050e-08 2.00000e-03
+ 2.56100e-08 0.00000e+00 2.75500e-08 0.00000e+00 2.75550e-08 2.00000e-03
+ 2.76050e-08 2.00000e-03 2.76100e-08 0.00000e+00 2.95500e-08 0.00000e+00
+ 2.95550e-08 2.00000e-03 2.96050e-08 2.00000e-03 2.96100e-08 0.00000e+00
+ 3.15500e-08 0.00000e+00 3.15550e-08 2.00000e-03 3.16050e-08 2.00000e-03
+ 3.16100e-08 0.00000e+00 3.35500e-08 0.00000e+00 3.35550e-08 2.00000e-03
+ 3.36050e-08 2.00000e-03 3.36100e-08 0.00000e+00 3.55500e-08 0.00000e+00
+ 3.55550e-08 2.00000e-03 3.56050e-08 2.00000e-03 3.56100e-08 0.00000e+00
+ 3.75500e-08 0.00000e+00 3.75550e-08 2.00000e-03 3.76050e-08 2.00000e-03
+ 3.76100e-08 0.00000e+00 3.95500e-08 0.00000e+00 3.95550e-08 2.00000e-03
+ 3.96050e-08 2.00000e-03 3.96100e-08 0.00000e+00 4.15500e-08 0.00000e+00
+ 4.15550e-08 2.00000e-03 4.16050e-08 2.00000e-03 4.16100e-08 0.00000e+00
+ 4.35500e-08 0.00000e+00 4.35550e-08 2.00000e-03 4.36050e-08 2.00000e-03
+ 4.36100e-08 0.00000e+00 4.55500e-08 0.00000e+00 4.55550e-08 2.00000e-03
+ 4.56050e-08 2.00000e-03 4.56100e-08 0.00000e+00 4.75500e-08 0.00000e+00
+ 4.75550e-08 2.00000e-03 4.76050e-08 2.00000e-03 4.76100e-08 0.00000e+00
+ 4.95500e-08 0.00000e+00 4.95550e-08 2.00000e-03 4.96050e-08 2.00000e-03
+ 4.96100e-08 0.00000e+00 5.15500e-08 0.00000e+00 5.15550e-08 2.00000e-03
+ 5.16050e-08 2.00000e-03 5.16100e-08 0.00000e+00 5.35500e-08 0.00000e+00
+ 5.35550e-08 2.00000e-03 5.36050e-08 2.00000e-03 5.36100e-08 0.00000e+00
+ 5.55500e-08 0.00000e+00 5.55550e-08 2.00000e-03 5.56050e-08 2.00000e-03
+ 5.56100e-08 0.00000e+00 5.75500e-08 0.00000e+00 5.75550e-08 2.00000e-03
+ 5.76050e-08 2.00000e-03 5.76100e-08 0.00000e+00 5.95500e-08 0.00000e+00
+ 5.95550e-08 2.00000e-03 5.96050e-08 2.00000e-03 5.96100e-08 0.00000e+00
+ 6.15500e-08 0.00000e+00 6.15550e-08 2.00000e-03 6.16050e-08 2.00000e-03
+ 6.16100e-08 0.00000e+00 6.35500e-08 0.00000e+00 6.35550e-08 2.00000e-03
+ 6.36050e-08 2.00000e-03 6.36100e-08 0.00000e+00 6.55500e-08 0.00000e+00
+ 6.55550e-08 2.00000e-03 6.56050e-08 2.00000e-03 6.56100e-08 0.00000e+00
+ 6.75500e-08 0.00000e+00 6.75550e-08 2.00000e-03 6.76050e-08 2.00000e-03
+ 6.76100e-08 0.00000e+00 6.95500e-08 0.00000e+00 6.95550e-08 2.00000e-03
+ 6.96050e-08 2.00000e-03 6.96100e-08 0.00000e+00 7.15500e-08 0.00000e+00
+ 7.15550e-08 2.00000e-03 7.16050e-08 2.00000e-03 7.16100e-08 0.00000e+00
+ 7.35500e-08 0.00000e+00 7.35550e-08 2.00000e-03 7.36050e-08 2.00000e-03
+ 7.36100e-08 0.00000e+00 7.55500e-08 0.00000e+00 7.55550e-08 2.00000e-03
+ 7.56050e-08 2.00000e-03 7.56100e-08 0.00000e+00 7.75500e-08 0.00000e+00
+ 7.75550e-08 2.00000e-03 7.76050e-08 2.00000e-03 7.76100e-08 0.00000e+00
+ 7.95500e-08 0.00000e+00 7.95550e-08 2.00000e-03 7.96050e-08 2.00000e-03
+ 7.96100e-08 0.00000e+00 8.15500e-08 0.00000e+00 8.15550e-08 2.00000e-03
+ 8.16050e-08 2.00000e-03 8.16100e-08 0.00000e+00 8.35500e-08 0.00000e+00
+ 8.35550e-08 2.00000e-03 8.36050e-08 2.00000e-03 8.36100e-08 0.00000e+00
+ 8.55500e-08 0.00000e+00 8.55550e-08 2.00000e-03 8.56050e-08 2.00000e-03
+ 8.56100e-08 0.00000e+00 8.75500e-08 0.00000e+00 8.75550e-08 2.00000e-03
+ 8.76050e-08 2.00000e-03 8.76100e-08 0.00000e+00 8.95500e-08 0.00000e+00
+ 8.95550e-08 2.00000e-03 8.96050e-08 2.00000e-03 8.96100e-08 0.00000e+00
+ 9.15500e-08 0.00000e+00 9.15550e-08 2.00000e-03 9.16050e-08 2.00000e-03
+ 9.16100e-08 0.00000e+00 9.35500e-08 0.00000e+00 9.35550e-08 2.00000e-03
+ 9.36050e-08 2.00000e-03 9.36100e-08 0.00000e+00 9.55500e-08 0.00000e+00
+ 9.55550e-08 2.00000e-03 9.56050e-08 2.00000e-03 9.56100e-08 0.00000e+00
+ 9.75500e-08 0.00000e+00 9.75550e-08 2.00000e-03 9.76050e-08 2.00000e-03
+ 9.76100e-08 0.00000e+00 9.95500e-08 0.00000e+00 9.95550e-08 2.00000e-03
+ 9.96050e-08 2.00000e-03 9.96100e-08 0.00000e+00 1.01550e-07 0.00000e+00
+ 1.01555e-07 2.00000e-03 1.01605e-07 2.00000e-03 1.01610e-07 0.00000e+00
+ 1.03550e-07 0.00000e+00 1.03555e-07 2.00000e-03 1.03605e-07 2.00000e-03
+ 1.03610e-07 0.00000e+00 1.05550e-07 0.00000e+00 1.05555e-07 2.00000e-03
+ 1.05605e-07 2.00000e-03 1.05610e-07 0.00000e+00 1.07550e-07 0.00000e+00
+ 1.07555e-07 2.00000e-03 1.07605e-07 2.00000e-03 1.07610e-07 0.00000e+00
+ 1.09550e-07 0.00000e+00 1.09555e-07 2.00000e-03 1.09605e-07 2.00000e-03
+ 1.09610e-07 0.00000e+00 1.11550e-07 0.00000e+00 1.11555e-07 2.00000e-03
+ 1.11605e-07 2.00000e-03 1.11610e-07 0.00000e+00 1.13550e-07 0.00000e+00
+ 1.13555e-07 2.00000e-03 1.13605e-07 2.00000e-03 1.13610e-07 0.00000e+00
+ 1.15550e-07 0.00000e+00 1.15555e-07 2.00000e-03 1.15605e-07 2.00000e-03
+ 1.15610e-07 0.00000e+00 1.17550e-07 0.00000e+00 1.17555e-07 2.00000e-03
+ 1.17605e-07 2.00000e-03 1.17610e-07 0.00000e+00 1.19550e-07 0.00000e+00
+ 1.19555e-07 2.00000e-03 1.19605e-07 2.00000e-03 1.19610e-07 0.00000e+00
+ 1.21550e-07 0.00000e+00 1.21555e-07 2.00000e-03 1.21605e-07 2.00000e-03
+ 1.21610e-07 0.00000e+00 1.23550e-07 0.00000e+00 1.23555e-07 2.00000e-03
+ 1.23605e-07 2.00000e-03 1.23610e-07 0.00000e+00 1.25550e-07 0.00000e+00
+ 1.25555e-07 2.00000e-03 1.25605e-07 2.00000e-03 1.25610e-07 0.00000e+00
+ 1.27550e-07 0.00000e+00 1.27555e-07 2.00000e-03 1.27605e-07 2.00000e-03
+ 1.27610e-07 0.00000e+00 1.29550e-07 0.00000e+00 1.29555e-07 2.00000e-03
+ 1.29605e-07 2.00000e-03 1.29610e-07 0.00000e+00 1.31550e-07 0.00000e+00
+ 1.31555e-07 2.00000e-03 1.31605e-07 2.00000e-03 1.31610e-07 0.00000e+00
+ 1.33550e-07 0.00000e+00 1.33555e-07 2.00000e-03 1.33605e-07 2.00000e-03
+ 1.33610e-07 0.00000e+00 1.35550e-07 0.00000e+00 1.35555e-07 2.00000e-03
+ 1.35605e-07 2.00000e-03 1.35610e-07 0.00000e+00 1.37550e-07 0.00000e+00
+ 1.37555e-07 2.00000e-03 1.37605e-07 2.00000e-03 1.37610e-07 0.00000e+00
+ 1.39550e-07 0.00000e+00 1.39555e-07 2.00000e-03 1.39605e-07 2.00000e-03
+ 1.39610e-07 0.00000e+00 1.41550e-07 0.00000e+00 1.41555e-07 2.00000e-03
+ 1.41605e-07 2.00000e-03 1.41610e-07 0.00000e+00 1.43550e-07 0.00000e+00
+ 1.43555e-07 2.00000e-03 1.43605e-07 2.00000e-03 1.43610e-07 0.00000e+00
+ 1.45550e-07 0.00000e+00 1.45555e-07 2.00000e-03 1.45605e-07 2.00000e-03
+ 1.45610e-07 0.00000e+00 1.47550e-07 0.00000e+00 1.47555e-07 2.00000e-03
+ 1.47605e-07 2.00000e-03 1.47610e-07 0.00000e+00 1.49550e-07 0.00000e+00
+ 1.49555e-07 2.00000e-03 1.49605e-07 2.00000e-03 1.49610e-07 0.00000e+00
+ 1.51550e-07 0.00000e+00 1.51555e-07 2.00000e-03 1.51605e-07 2.00000e-03
+ 1.51610e-07 0.00000e+00 1.53550e-07 0.00000e+00 1.53555e-07 2.00000e-03
+ 1.53605e-07 2.00000e-03 1.53610e-07 0.00000e+00 1.55550e-07 0.00000e+00
+ 1.55555e-07 2.00000e-03 1.55605e-07 2.00000e-03 1.55610e-07 0.00000e+00
+ 1.57550e-07 0.00000e+00 1.57555e-07 2.00000e-03 1.57605e-07 2.00000e-03
+ 1.57610e-07 0.00000e+00 1.59550e-07 0.00000e+00 1.59555e-07 2.00000e-03
+ 1.59605e-07 2.00000e-03 1.59610e-07 0.00000e+00 1.61550e-07 0.00000e+00
+ 1.61555e-07 2.00000e-03 1.61605e-07 2.00000e-03 1.61610e-07 0.00000e+00
+ 1.63550e-07 0.00000e+00 1.63555e-07 2.00000e-03 1.63605e-07 2.00000e-03
+ 1.63610e-07 0.00000e+00 1.65550e-07 0.00000e+00 1.65555e-07 2.00000e-03
+ 1.65605e-07 2.00000e-03 1.65610e-07 0.00000e+00 1.67550e-07 0.00000e+00
+ 1.67555e-07 2.00000e-03 1.67605e-07 2.00000e-03 1.67610e-07 0.00000e+00
+ 1.69550e-07 0.00000e+00 1.69555e-07 2.00000e-03 1.69605e-07 2.00000e-03
+ 1.69610e-07 0.00000e+00 1.71550e-07 0.00000e+00 1.71555e-07 2.00000e-03
+ 1.71605e-07 2.00000e-03 1.71610e-07 0.00000e+00 1.73550e-07 0.00000e+00
+ 1.73555e-07 2.00000e-03 1.73605e-07 2.00000e-03 1.73610e-07 0.00000e+00
+ 1.75550e-07 0.00000e+00 1.75555e-07 2.00000e-03 1.75605e-07 2.00000e-03
+ 1.75610e-07 0.00000e+00 1.77550e-07 0.00000e+00 1.77555e-07 2.00000e-03
+ 1.77605e-07 2.00000e-03 1.77610e-07 0.00000e+00 1.79550e-07 0.00000e+00
+ 1.79555e-07 2.00000e-03 1.79605e-07 2.00000e-03 1.79610e-07 0.00000e+00
+ 1.81550e-07 0.00000e+00 1.81555e-07 2.00000e-03 1.81605e-07 2.00000e-03
+ 1.81610e-07 0.00000e+00 1.83550e-07 0.00000e+00 1.83555e-07 2.00000e-03
+ 1.83605e-07 2.00000e-03 1.83610e-07 0.00000e+00 1.85550e-07 0.00000e+00
+ 1.85555e-07 2.00000e-03 1.85605e-07 2.00000e-03 1.85610e-07 0.00000e+00
+ 1.87550e-07 0.00000e+00 1.87555e-07 2.00000e-03 1.87605e-07 2.00000e-03
+ 1.87610e-07 0.00000e+00 1.89550e-07 0.00000e+00 1.89555e-07 2.00000e-03
+ 1.89605e-07 2.00000e-03 1.89610e-07 0.00000e+00 1.91550e-07 0.00000e+00
+ 1.91555e-07 2.00000e-03 1.91605e-07 2.00000e-03 1.91610e-07 0.00000e+00
+ 1.93550e-07 0.00000e+00 1.93555e-07 2.00000e-03 1.93605e-07 2.00000e-03
+ 1.93610e-07 0.00000e+00 1.95550e-07 0.00000e+00 1.95555e-07 2.00000e-03
+ 1.95605e-07 2.00000e-03 1.95610e-07 0.00000e+00 1.97550e-07 0.00000e+00
+ 1.97555e-07 2.00000e-03 1.97605e-07 2.00000e-03 1.97610e-07 0.00000e+00
+ 1.99550e-07 0.00000e+00 1.99555e-07 2.00000e-03 1.99605e-07 2.00000e-03
+ 1.99610e-07 0.00000e+00)
IIN2 0 IN2 PWL(0 0 20P 0 2.55000e-09 0.00000e+00 2.55500e-09 2.00000e-03 2.60500e-09 2.00000e-03
+ 2.61000e-09 0.00000e+00 3.55000e-09 0.00000e+00 3.55500e-09 2.00000e-03
+ 3.60500e-09 2.00000e-03 3.61000e-09 0.00000e+00 6.55000e-09 0.00000e+00
+ 6.55500e-09 2.00000e-03 6.60500e-09 2.00000e-03 6.61000e-09 0.00000e+00
+ 7.55000e-09 0.00000e+00 7.55500e-09 2.00000e-03 7.60500e-09 2.00000e-03
+ 7.61000e-09 0.00000e+00 1.05500e-08 0.00000e+00 1.05550e-08 2.00000e-03
+ 1.06050e-08 2.00000e-03 1.06100e-08 0.00000e+00 1.15500e-08 0.00000e+00
+ 1.15550e-08 2.00000e-03 1.16050e-08 2.00000e-03 1.16100e-08 0.00000e+00
+ 1.45500e-08 0.00000e+00 1.45550e-08 2.00000e-03 1.46050e-08 2.00000e-03
+ 1.46100e-08 0.00000e+00 1.55500e-08 0.00000e+00 1.55550e-08 2.00000e-03
+ 1.56050e-08 2.00000e-03 1.56100e-08 0.00000e+00 1.85500e-08 0.00000e+00
+ 1.85550e-08 2.00000e-03 1.86050e-08 2.00000e-03 1.86100e-08 0.00000e+00
+ 1.95500e-08 0.00000e+00 1.95550e-08 2.00000e-03 1.96050e-08 2.00000e-03
+ 1.96100e-08 0.00000e+00 2.25500e-08 0.00000e+00 2.25550e-08 2.00000e-03
+ 2.26050e-08 2.00000e-03 2.26100e-08 0.00000e+00 2.35500e-08 0.00000e+00
+ 2.35550e-08 2.00000e-03 2.36050e-08 2.00000e-03 2.36100e-08 0.00000e+00
+ 2.65500e-08 0.00000e+00 2.65550e-08 2.00000e-03 2.66050e-08 2.00000e-03
+ 2.66100e-08 0.00000e+00 2.75500e-08 0.00000e+00 2.75550e-08 2.00000e-03
+ 2.76050e-08 2.00000e-03 2.76100e-08 0.00000e+00 3.05500e-08 0.00000e+00
+ 3.05550e-08 2.00000e-03 3.06050e-08 2.00000e-03 3.06100e-08 0.00000e+00
+ 3.15500e-08 0.00000e+00 3.15550e-08 2.00000e-03 3.16050e-08 2.00000e-03
+ 3.16100e-08 0.00000e+00 3.45500e-08 0.00000e+00 3.45550e-08 2.00000e-03
+ 3.46050e-08 2.00000e-03 3.46100e-08 0.00000e+00 3.55500e-08 0.00000e+00
+ 3.55550e-08 2.00000e-03 3.56050e-08 2.00000e-03 3.56100e-08 0.00000e+00
+ 3.85500e-08 0.00000e+00 3.85550e-08 2.00000e-03 3.86050e-08 2.00000e-03
+ 3.86100e-08 0.00000e+00 3.95500e-08 0.00000e+00 3.95550e-08 2.00000e-03
+ 3.96050e-08 2.00000e-03 3.96100e-08 0.00000e+00 4.25500e-08 0.00000e+00
+ 4.25550e-08 2.00000e-03 4.26050e-08 2.00000e-03 4.26100e-08 0.00000e+00
+ 4.35500e-08 0.00000e+00 4.35550e-08 2.00000e-03 4.36050e-08 2.00000e-03
+ 4.36100e-08 0.00000e+00 4.65500e-08 0.00000e+00 4.65550e-08 2.00000e-03
+ 4.66050e-08 2.00000e-03 4.66100e-08 0.00000e+00 4.75500e-08 0.00000e+00
+ 4.75550e-08 2.00000e-03 4.76050e-08 2.00000e-03 4.76100e-08 0.00000e+00
+ 5.05500e-08 0.00000e+00 5.05550e-08 2.00000e-03 5.06050e-08 2.00000e-03
+ 5.06100e-08 0.00000e+00 5.15500e-08 0.00000e+00 5.15550e-08 2.00000e-03
+ 5.16050e-08 2.00000e-03 5.16100e-08 0.00000e+00 5.45500e-08 0.00000e+00
+ 5.45550e-08 2.00000e-03 5.46050e-08 2.00000e-03 5.46100e-08 0.00000e+00
+ 5.55500e-08 0.00000e+00 5.55550e-08 2.00000e-03 5.56050e-08 2.00000e-03
+ 5.56100e-08 0.00000e+00 5.85500e-08 0.00000e+00 5.85550e-08 2.00000e-03
+ 5.86050e-08 2.00000e-03 5.86100e-08 0.00000e+00 5.95500e-08 0.00000e+00
+ 5.95550e-08 2.00000e-03 5.96050e-08 2.00000e-03 5.96100e-08 0.00000e+00
+ 6.25500e-08 0.00000e+00 6.25550e-08 2.00000e-03 6.26050e-08 2.00000e-03
+ 6.26100e-08 0.00000e+00 6.35500e-08 0.00000e+00 6.35550e-08 2.00000e-03
+ 6.36050e-08 2.00000e-03 6.36100e-08 0.00000e+00 6.65500e-08 0.00000e+00
+ 6.65550e-08 2.00000e-03 6.66050e-08 2.00000e-03 6.66100e-08 0.00000e+00
+ 6.75500e-08 0.00000e+00 6.75550e-08 2.00000e-03 6.76050e-08 2.00000e-03
+ 6.76100e-08 0.00000e+00 7.05500e-08 0.00000e+00 7.05550e-08 2.00000e-03
+ 7.06050e-08 2.00000e-03 7.06100e-08 0.00000e+00 7.15500e-08 0.00000e+00
+ 7.15550e-08 2.00000e-03 7.16050e-08 2.00000e-03 7.16100e-08 0.00000e+00
+ 7.45500e-08 0.00000e+00 7.45550e-08 2.00000e-03 7.46050e-08 2.00000e-03
+ 7.46100e-08 0.00000e+00 7.55500e-08 0.00000e+00 7.55550e-08 2.00000e-03
+ 7.56050e-08 2.00000e-03 7.56100e-08 0.00000e+00 7.85500e-08 0.00000e+00
+ 7.85550e-08 2.00000e-03 7.86050e-08 2.00000e-03 7.86100e-08 0.00000e+00
+ 7.95500e-08 0.00000e+00 7.95550e-08 2.00000e-03 7.96050e-08 2.00000e-03
+ 7.96100e-08 0.00000e+00 8.25500e-08 0.00000e+00 8.25550e-08 2.00000e-03
+ 8.26050e-08 2.00000e-03 8.26100e-08 0.00000e+00 8.35500e-08 0.00000e+00
+ 8.35550e-08 2.00000e-03 8.36050e-08 2.00000e-03 8.36100e-08 0.00000e+00
+ 8.65500e-08 0.00000e+00 8.65550e-08 2.00000e-03 8.66050e-08 2.00000e-03
+ 8.66100e-08 0.00000e+00 8.75500e-08 0.00000e+00 8.75550e-08 2.00000e-03
+ 8.76050e-08 2.00000e-03 8.76100e-08 0.00000e+00 9.05500e-08 0.00000e+00
+ 9.05550e-08 2.00000e-03 9.06050e-08 2.00000e-03 9.06100e-08 0.00000e+00
+ 9.15500e-08 0.00000e+00 9.15550e-08 2.00000e-03 9.16050e-08 2.00000e-03
+ 9.16100e-08 0.00000e+00 9.45500e-08 0.00000e+00 9.45550e-08 2.00000e-03
+ 9.46050e-08 2.00000e-03 9.46100e-08 0.00000e+00 9.55500e-08 0.00000e+00
+ 9.55550e-08 2.00000e-03 9.56050e-08 2.00000e-03 9.56100e-08 0.00000e+00
+ 9.85500e-08 0.00000e+00 9.85550e-08 2.00000e-03 9.86050e-08 2.00000e-03
+ 9.86100e-08 0.00000e+00 9.95500e-08 0.00000e+00 9.95550e-08 2.00000e-03
+ 9.96050e-08 2.00000e-03 9.96100e-08 0.00000e+00 1.02550e-07 0.00000e+00
+ 1.02555e-07 2.00000e-03 1.02605e-07 2.00000e-03 1.02610e-07 0.00000e+00
+ 1.03550e-07 0.00000e+00 1.03555e-07 2.00000e-03 1.03605e-07 2.00000e-03
+ 1.03610e-07 0.00000e+00 1.06550e-07 0.00000e+00 1.06555e-07 2.00000e-03
+ 1.06605e-07 2.00000e-03 1.06610e-07 0.00000e+00 1.07550e-07 0.00000e+00
+ 1.07555e-07 2.00000e-03 1.07605e-07 2.00000e-03 1.07610e-07 0.00000e+00
+ 1.10550e-07 0.00000e+00 1.10555e-07 2.00000e-03 1.10605e-07 2.00000e-03
+ 1.10610e-07 0.00000e+00 1.11550e-07 0.00000e+00 1.11555e-07 2.00000e-03
+ 1.11605e-07 2.00000e-03 1.11610e-07 0.00000e+00 1.14550e-07 0.00000e+00
+ 1.14555e-07 2.00000e-03 1.14605e-07 2.00000e-03 1.14610e-07 0.00000e+00
+ 1.15550e-07 0.00000e+00 1.15555e-07 2.00000e-03 1.15605e-07 2.00000e-03
+ 1.15610e-07 0.00000e+00 1.18550e-07 0.00000e+00 1.18555e-07 2.00000e-03
+ 1.18605e-07 2.00000e-03 1.18610e-07 0.00000e+00 1.19550e-07 0.00000e+00
+ 1.19555e-07 2.00000e-03 1.19605e-07 2.00000e-03 1.19610e-07 0.00000e+00
+ 1.22550e-07 0.00000e+00 1.22555e-07 2.00000e-03 1.22605e-07 2.00000e-03
+ 1.22610e-07 0.00000e+00 1.23550e-07 0.00000e+00 1.23555e-07 2.00000e-03
+ 1.23605e-07 2.00000e-03 1.23610e-07 0.00000e+00 1.26550e-07 0.00000e+00
+ 1.26555e-07 2.00000e-03 1.26605e-07 2.00000e-03 1.26610e-07 0.00000e+00
+ 1.27550e-07 0.00000e+00 1.27555e-07 2.00000e-03 1.27605e-07 2.00000e-03
+ 1.27610e-07 0.00000e+00 1.30550e-07 0.00000e+00 1.30555e-07 2.00000e-03
+ 1.30605e-07 2.00000e-03 1.30610e-07 0.00000e+00 1.31550e-07 0.00000e+00
+ 1.31555e-07 2.00000e-03 1.31605e-07 2.00000e-03 1.31610e-07 0.00000e+00
+ 1.34550e-07 0.00000e+00 1.34555e-07 2.00000e-03 1.34605e-07 2.00000e-03
+ 1.34610e-07 0.00000e+00 1.35550e-07 0.00000e+00 1.35555e-07 2.00000e-03
+ 1.35605e-07 2.00000e-03 1.35610e-07 0.00000e+00 1.38550e-07 0.00000e+00
+ 1.38555e-07 2.00000e-03 1.38605e-07 2.00000e-03 1.38610e-07 0.00000e+00
+ 1.39550e-07 0.00000e+00 1.39555e-07 2.00000e-03 1.39605e-07 2.00000e-03
+ 1.39610e-07 0.00000e+00 1.42550e-07 0.00000e+00 1.42555e-07 2.00000e-03
+ 1.42605e-07 2.00000e-03 1.42610e-07 0.00000e+00 1.43550e-07 0.00000e+00
+ 1.43555e-07 2.00000e-03 1.43605e-07 2.00000e-03 1.43610e-07 0.00000e+00
+ 1.46550e-07 0.00000e+00 1.46555e-07 2.00000e-03 1.46605e-07 2.00000e-03
+ 1.46610e-07 0.00000e+00 1.47550e-07 0.00000e+00 1.47555e-07 2.00000e-03
+ 1.47605e-07 2.00000e-03 1.47610e-07 0.00000e+00 1.50550e-07 0.00000e+00
+ 1.50555e-07 2.00000e-03 1.50605e-07 2.00000e-03 1.50610e-07 0.00000e+00
+ 1.51550e-07 0.00000e+00 1.51555e-07 2.00000e-03 1.51605e-07 2.00000e-03
+ 1.51610e-07 0.00000e+00 1.54550e-07 0.00000e+00 1.54555e-07 2.00000e-03
+ 1.54605e-07 2.00000e-03 1.54610e-07 0.00000e+00 1.55550e-07 0.00000e+00
+ 1.55555e-07 2.00000e-03 1.55605e-07 2.00000e-03 1.55610e-07 0.00000e+00
+ 1.58550e-07 0.00000e+00 1.58555e-07 2.00000e-03 1.58605e-07 2.00000e-03
+ 1.58610e-07 0.00000e+00 1.59550e-07 0.00000e+00 1.59555e-07 2.00000e-03
+ 1.59605e-07 2.00000e-03 1.59610e-07 0.00000e+00 1.62550e-07 0.00000e+00
+ 1.62555e-07 2.00000e-03 1.62605e-07 2.00000e-03 1.62610e-07 0.00000e+00
+ 1.63550e-07 0.00000e+00 1.63555e-07 2.00000e-03 1.63605e-07 2.00000e-03
+ 1.63610e-07 0.00000e+00 1.66550e-07 0.00000e+00 1.66555e-07 2.00000e-03
+ 1.66605e-07 2.00000e-03 1.66610e-07 0.00000e+00 1.67550e-07 0.00000e+00
+ 1.67555e-07 2.00000e-03 1.67605e-07 2.00000e-03 1.67610e-07 0.00000e+00
+ 1.70550e-07 0.00000e+00 1.70555e-07 2.00000e-03 1.70605e-07 2.00000e-03
+ 1.70610e-07 0.00000e+00 1.71550e-07 0.00000e+00 1.71555e-07 2.00000e-03
+ 1.71605e-07 2.00000e-03 1.71610e-07 0.00000e+00 1.74550e-07 0.00000e+00
+ 1.74555e-07 2.00000e-03 1.74605e-07 2.00000e-03 1.74610e-07 0.00000e+00
+ 1.75550e-07 0.00000e+00 1.75555e-07 2.00000e-03 1.75605e-07 2.00000e-03
+ 1.75610e-07 0.00000e+00 1.78550e-07 0.00000e+00 1.78555e-07 2.00000e-03
+ 1.78605e-07 2.00000e-03 1.78610e-07 0.00000e+00 1.79550e-07 0.00000e+00
+ 1.79555e-07 2.00000e-03 1.79605e-07 2.00000e-03 1.79610e-07 0.00000e+00
+ 1.82550e-07 0.00000e+00 1.82555e-07 2.00000e-03 1.82605e-07 2.00000e-03
+ 1.82610e-07 0.00000e+00 1.83550e-07 0.00000e+00 1.83555e-07 2.00000e-03
+ 1.83605e-07 2.00000e-03 1.83610e-07 0.00000e+00 1.86550e-07 0.00000e+00
+ 1.86555e-07 2.00000e-03 1.86605e-07 2.00000e-03 1.86610e-07 0.00000e+00
+ 1.87550e-07 0.00000e+00 1.87555e-07 2.00000e-03 1.87605e-07 2.00000e-03
+ 1.87610e-07 0.00000e+00 1.90550e-07 0.00000e+00 1.90555e-07 2.00000e-03
+ 1.90605e-07 2.00000e-03 1.90610e-07 0.00000e+00 1.91550e-07 0.00000e+00
+ 1.91555e-07 2.00000e-03 1.91605e-07 2.00000e-03 1.91610e-07 0.00000e+00
+ 1.94550e-07 0.00000e+00 1.94555e-07 2.00000e-03 1.94605e-07 2.00000e-03
+ 1.94610e-07 0.00000e+00 1.95550e-07 0.00000e+00 1.95555e-07 2.00000e-03
+ 1.95605e-07 2.00000e-03 1.95610e-07 0.00000e+00 1.98550e-07 0.00000e+00
+ 1.98555e-07 2.00000e-03 1.98605e-07 2.00000e-03 1.98610e-07 0.00000e+00
+ 1.99550e-07 0.00000e+00 1.99555e-07 2.00000e-03 1.99605e-07 2.00000e-03
+ 1.99610e-07 0.00000e+00)
IINBIAS1 0 INB11 pulse(0 0.002 550p 5p 5p 50p 1000p)
ITARGET 0 TARGET0  PWL(0 0 20P 0 1.55000e-09 0.00000e+00 1.55500e-09 1.00000e-03 1.60500e-09 1.00000e-03
+ 1.61000e-09 0.00000e+00 2.55000e-09 0.00000e+00 2.55500e-09 1.00000e-03
+ 2.60500e-09 1.00000e-03 2.61000e-09 0.00000e+00 5.55000e-09 0.00000e+00
+ 5.55500e-09 1.00000e-03 5.60500e-09 1.00000e-03 5.61000e-09 0.00000e+00
+ 6.55000e-09 0.00000e+00 6.55500e-09 1.00000e-03 6.60500e-09 1.00000e-03
+ 6.61000e-09 0.00000e+00 9.55000e-09 0.00000e+00 9.55500e-09 1.00000e-03
+ 9.60500e-09 1.00000e-03 9.61000e-09 0.00000e+00 1.05500e-08 0.00000e+00
+ 1.05550e-08 1.00000e-03 1.06050e-08 1.00000e-03 1.06100e-08 0.00000e+00
+ 1.35500e-08 0.00000e+00 1.35550e-08 1.00000e-03 1.36050e-08 1.00000e-03
+ 1.36100e-08 0.00000e+00 1.45500e-08 0.00000e+00 1.45550e-08 1.00000e-03
+ 1.46050e-08 1.00000e-03 1.46100e-08 0.00000e+00 1.75500e-08 0.00000e+00
+ 1.75550e-08 1.00000e-03 1.76050e-08 1.00000e-03 1.76100e-08 0.00000e+00
+ 1.85500e-08 0.00000e+00 1.85550e-08 1.00000e-03 1.86050e-08 1.00000e-03
+ 1.86100e-08 0.00000e+00 2.15500e-08 0.00000e+00 2.15550e-08 1.00000e-03
+ 2.16050e-08 1.00000e-03 2.16100e-08 0.00000e+00 2.25500e-08 0.00000e+00
+ 2.25550e-08 1.00000e-03 2.26050e-08 1.00000e-03 2.26100e-08 0.00000e+00
+ 2.55500e-08 0.00000e+00 2.55550e-08 1.00000e-03 2.56050e-08 1.00000e-03
+ 2.56100e-08 0.00000e+00 2.65500e-08 0.00000e+00 2.65550e-08 1.00000e-03
+ 2.66050e-08 1.00000e-03 2.66100e-08 0.00000e+00 2.95500e-08 0.00000e+00
+ 2.95550e-08 1.00000e-03 2.96050e-08 1.00000e-03 2.96100e-08 0.00000e+00
+ 3.05500e-08 0.00000e+00 3.05550e-08 1.00000e-03 3.06050e-08 1.00000e-03
+ 3.06100e-08 0.00000e+00 3.35500e-08 0.00000e+00 3.35550e-08 1.00000e-03
+ 3.36050e-08 1.00000e-03 3.36100e-08 0.00000e+00 3.45500e-08 0.00000e+00
+ 3.45550e-08 1.00000e-03 3.46050e-08 1.00000e-03 3.46100e-08 0.00000e+00
+ 3.75500e-08 0.00000e+00 3.75550e-08 1.00000e-03 3.76050e-08 1.00000e-03
+ 3.76100e-08 0.00000e+00 3.85500e-08 0.00000e+00 3.85550e-08 1.00000e-03
+ 3.86050e-08 1.00000e-03 3.86100e-08 0.00000e+00 4.15500e-08 0.00000e+00
+ 4.15550e-08 1.00000e-03 4.16050e-08 1.00000e-03 4.16100e-08 0.00000e+00
+ 4.25500e-08 0.00000e+00 4.25550e-08 1.00000e-03 4.26050e-08 1.00000e-03
+ 4.26100e-08 0.00000e+00 4.55500e-08 0.00000e+00 4.55550e-08 1.00000e-03
+ 4.56050e-08 1.00000e-03 4.56100e-08 0.00000e+00 4.65500e-08 0.00000e+00
+ 4.65550e-08 1.00000e-03 4.66050e-08 1.00000e-03 4.66100e-08 0.00000e+00
+ 4.95500e-08 0.00000e+00 4.95550e-08 1.00000e-03 4.96050e-08 1.00000e-03
+ 4.96100e-08 0.00000e+00 5.05500e-08 0.00000e+00 5.05550e-08 1.00000e-03
+ 5.06050e-08 1.00000e-03 5.06100e-08 0.00000e+00 5.35500e-08 0.00000e+00
+ 5.35550e-08 1.00000e-03 5.36050e-08 1.00000e-03 5.36100e-08 0.00000e+00
+ 5.45500e-08 0.00000e+00 5.45550e-08 1.00000e-03 5.46050e-08 1.00000e-03
+ 5.46100e-08 0.00000e+00 5.75500e-08 0.00000e+00 5.75550e-08 1.00000e-03
+ 5.76050e-08 1.00000e-03 5.76100e-08 0.00000e+00 5.85500e-08 0.00000e+00
+ 5.85550e-08 1.00000e-03 5.86050e-08 1.00000e-03 5.86100e-08 0.00000e+00
+ 6.15500e-08 0.00000e+00 6.15550e-08 1.00000e-03 6.16050e-08 1.00000e-03
+ 6.16100e-08 0.00000e+00 6.25500e-08 0.00000e+00 6.25550e-08 1.00000e-03
+ 6.26050e-08 1.00000e-03 6.26100e-08 0.00000e+00 6.55500e-08 0.00000e+00
+ 6.55550e-08 1.00000e-03 6.56050e-08 1.00000e-03 6.56100e-08 0.00000e+00
+ 6.65500e-08 0.00000e+00 6.65550e-08 1.00000e-03 6.66050e-08 1.00000e-03
+ 6.66100e-08 0.00000e+00 6.95500e-08 0.00000e+00 6.95550e-08 1.00000e-03
+ 6.96050e-08 1.00000e-03 6.96100e-08 0.00000e+00 7.05500e-08 0.00000e+00
+ 7.05550e-08 1.00000e-03 7.06050e-08 1.00000e-03 7.06100e-08 0.00000e+00
+ 7.35500e-08 0.00000e+00 7.35550e-08 1.00000e-03 7.36050e-08 1.00000e-03
+ 7.36100e-08 0.00000e+00 7.45500e-08 0.00000e+00 7.45550e-08 1.00000e-03
+ 7.46050e-08 1.00000e-03 7.46100e-08 0.00000e+00 7.75500e-08 0.00000e+00
+ 7.75550e-08 1.00000e-03 7.76050e-08 1.00000e-03 7.76100e-08 0.00000e+00
+ 7.85500e-08 0.00000e+00 7.85550e-08 1.00000e-03 7.86050e-08 1.00000e-03
+ 7.86100e-08 0.00000e+00 8.15500e-08 0.00000e+00 8.15550e-08 1.00000e-03
+ 8.16050e-08 1.00000e-03 8.16100e-08 0.00000e+00 8.25500e-08 0.00000e+00
+ 8.25550e-08 1.00000e-03 8.26050e-08 1.00000e-03 8.26100e-08 0.00000e+00
+ 8.55500e-08 0.00000e+00 8.55550e-08 1.00000e-03 8.56050e-08 1.00000e-03
+ 8.56100e-08 0.00000e+00 8.65500e-08 0.00000e+00 8.65550e-08 1.00000e-03
+ 8.66050e-08 1.00000e-03 8.66100e-08 0.00000e+00 8.95500e-08 0.00000e+00
+ 8.95550e-08 1.00000e-03 8.96050e-08 1.00000e-03 8.96100e-08 0.00000e+00
+ 9.05500e-08 0.00000e+00 9.05550e-08 1.00000e-03 9.06050e-08 1.00000e-03
+ 9.06100e-08 0.00000e+00 9.35500e-08 0.00000e+00 9.35550e-08 1.00000e-03
+ 9.36050e-08 1.00000e-03 9.36100e-08 0.00000e+00 9.45500e-08 0.00000e+00
+ 9.45550e-08 1.00000e-03 9.46050e-08 1.00000e-03 9.46100e-08 0.00000e+00
+ 9.75500e-08 0.00000e+00 9.75550e-08 1.00000e-03 9.76050e-08 1.00000e-03
+ 9.76100e-08 0.00000e+00 9.85500e-08 0.00000e+00 9.85550e-08 1.00000e-03
+ 9.86050e-08 1.00000e-03 9.86100e-08 0.00000e+00 1.01550e-07 0.00000e+00
+ 1.01555e-07 1.00000e-03 1.01605e-07 1.00000e-03 1.01610e-07 0.00000e+00
+ 1.02550e-07 0.00000e+00 1.02555e-07 1.00000e-03 1.02605e-07 1.00000e-03
+ 1.02610e-07 0.00000e+00 1.05550e-07 0.00000e+00 1.05555e-07 1.00000e-03
+ 1.05605e-07 1.00000e-03 1.05610e-07 0.00000e+00 1.06550e-07 0.00000e+00
+ 1.06555e-07 1.00000e-03 1.06605e-07 1.00000e-03 1.06610e-07 0.00000e+00
+ 1.09550e-07 0.00000e+00 1.09555e-07 1.00000e-03 1.09605e-07 1.00000e-03
+ 1.09610e-07 0.00000e+00 1.10550e-07 0.00000e+00 1.10555e-07 1.00000e-03
+ 1.10605e-07 1.00000e-03 1.10610e-07 0.00000e+00 1.13550e-07 0.00000e+00
+ 1.13555e-07 1.00000e-03 1.13605e-07 1.00000e-03 1.13610e-07 0.00000e+00
+ 1.14550e-07 0.00000e+00 1.14555e-07 1.00000e-03 1.14605e-07 1.00000e-03
+ 1.14610e-07 0.00000e+00 1.17550e-07 0.00000e+00 1.17555e-07 1.00000e-03
+ 1.17605e-07 1.00000e-03 1.17610e-07 0.00000e+00 1.18550e-07 0.00000e+00
+ 1.18555e-07 1.00000e-03 1.18605e-07 1.00000e-03 1.18610e-07 0.00000e+00
+ 1.21550e-07 0.00000e+00 1.21555e-07 1.00000e-03 1.21605e-07 1.00000e-03
+ 1.21610e-07 0.00000e+00 1.22550e-07 0.00000e+00 1.22555e-07 1.00000e-03
+ 1.22605e-07 1.00000e-03 1.22610e-07 0.00000e+00 1.25550e-07 0.00000e+00
+ 1.25555e-07 1.00000e-03 1.25605e-07 1.00000e-03 1.25610e-07 0.00000e+00
+ 1.26550e-07 0.00000e+00 1.26555e-07 1.00000e-03 1.26605e-07 1.00000e-03
+ 1.26610e-07 0.00000e+00 1.29550e-07 0.00000e+00 1.29555e-07 1.00000e-03
+ 1.29605e-07 1.00000e-03 1.29610e-07 0.00000e+00 1.30550e-07 0.00000e+00
+ 1.30555e-07 1.00000e-03 1.30605e-07 1.00000e-03 1.30610e-07 0.00000e+00
+ 1.33550e-07 0.00000e+00 1.33555e-07 1.00000e-03 1.33605e-07 1.00000e-03
+ 1.33610e-07 0.00000e+00 1.34550e-07 0.00000e+00 1.34555e-07 1.00000e-03
+ 1.34605e-07 1.00000e-03 1.34610e-07 0.00000e+00 1.37550e-07 0.00000e+00
+ 1.37555e-07 1.00000e-03 1.37605e-07 1.00000e-03 1.37610e-07 0.00000e+00
+ 1.38550e-07 0.00000e+00 1.38555e-07 1.00000e-03 1.38605e-07 1.00000e-03
+ 1.38610e-07 0.00000e+00 1.41550e-07 0.00000e+00 1.41555e-07 1.00000e-03
+ 1.41605e-07 1.00000e-03 1.41610e-07 0.00000e+00 1.42550e-07 0.00000e+00
+ 1.42555e-07 1.00000e-03 1.42605e-07 1.00000e-03 1.42610e-07 0.00000e+00
+ 1.45550e-07 0.00000e+00 1.45555e-07 1.00000e-03 1.45605e-07 1.00000e-03
+ 1.45610e-07 0.00000e+00 1.46550e-07 0.00000e+00 1.46555e-07 1.00000e-03
+ 1.46605e-07 1.00000e-03 1.46610e-07 0.00000e+00 1.49550e-07 0.00000e+00
+ 1.49555e-07 1.00000e-03 1.49605e-07 1.00000e-03 1.49610e-07 0.00000e+00
+ 1.50550e-07 0.00000e+00 1.50555e-07 1.00000e-03 1.50605e-07 1.00000e-03
+ 1.50610e-07 0.00000e+00 1.53550e-07 0.00000e+00 1.53555e-07 1.00000e-03
+ 1.53605e-07 1.00000e-03 1.53610e-07 0.00000e+00 1.54550e-07 0.00000e+00
+ 1.54555e-07 1.00000e-03 1.54605e-07 1.00000e-03 1.54610e-07 0.00000e+00
+ 1.57550e-07 0.00000e+00 1.57555e-07 1.00000e-03 1.57605e-07 1.00000e-03
+ 1.57610e-07 0.00000e+00 1.58550e-07 0.00000e+00 1.58555e-07 1.00000e-03
+ 1.58605e-07 1.00000e-03 1.58610e-07 0.00000e+00 1.61550e-07 0.00000e+00
+ 1.61555e-07 1.00000e-03 1.61605e-07 1.00000e-03 1.61610e-07 0.00000e+00
+ 1.62550e-07 0.00000e+00 1.62555e-07 1.00000e-03 1.62605e-07 1.00000e-03
+ 1.62610e-07 0.00000e+00 1.65550e-07 0.00000e+00 1.65555e-07 1.00000e-03
+ 1.65605e-07 1.00000e-03 1.65610e-07 0.00000e+00 1.66550e-07 0.00000e+00
+ 1.66555e-07 1.00000e-03 1.66605e-07 1.00000e-03 1.66610e-07 0.00000e+00
+ 1.69550e-07 0.00000e+00 1.69555e-07 1.00000e-03 1.69605e-07 1.00000e-03
+ 1.69610e-07 0.00000e+00 1.70550e-07 0.00000e+00 1.70555e-07 1.00000e-03
+ 1.70605e-07 1.00000e-03 1.70610e-07 0.00000e+00 1.73550e-07 0.00000e+00
+ 1.73555e-07 1.00000e-03 1.73605e-07 1.00000e-03 1.73610e-07 0.00000e+00
+ 1.74550e-07 0.00000e+00 1.74555e-07 1.00000e-03 1.74605e-07 1.00000e-03
+ 1.74610e-07 0.00000e+00 1.77550e-07 0.00000e+00 1.77555e-07 1.00000e-03
+ 1.77605e-07 1.00000e-03 1.77610e-07 0.00000e+00 1.78550e-07 0.00000e+00
+ 1.78555e-07 1.00000e-03 1.78605e-07 1.00000e-03 1.78610e-07 0.00000e+00
+ 1.81550e-07 0.00000e+00 1.81555e-07 1.00000e-03 1.81605e-07 1.00000e-03
+ 1.81610e-07 0.00000e+00 1.82550e-07 0.00000e+00 1.82555e-07 1.00000e-03
+ 1.82605e-07 1.00000e-03 1.82610e-07 0.00000e+00 1.85550e-07 0.00000e+00
+ 1.85555e-07 1.00000e-03 1.85605e-07 1.00000e-03 1.85610e-07 0.00000e+00
+ 1.86550e-07 0.00000e+00 1.86555e-07 1.00000e-03 1.86605e-07 1.00000e-03
+ 1.86610e-07 0.00000e+00 1.89550e-07 0.00000e+00 1.89555e-07 1.00000e-03
+ 1.89605e-07 1.00000e-03 1.89610e-07 0.00000e+00 1.90550e-07 0.00000e+00
+ 1.90555e-07 1.00000e-03 1.90605e-07 1.00000e-03 1.90610e-07 0.00000e+00