
#works well!
#got the data to propagate
.include LSmitll_DCSFQ_PTLTX_v1p5.cir
.include LSmitll_bufft_v1p5.cir
.include LSmitll_PTLRX_SFQDC_v1p5.cir
.include LSmitll_SPLITT_v1p5.cir
.INCLUDE LSMITLL_JTLT_V1P5.CIR
.INCLUDE LSMITLL_MERGET_V1P5.CIR
.include storeedit.cir
.INCLUDE COMPONENTSEDIT.CIR
.INCLUDE COMP3.CIR
.INCLUDE COMP4.CIR
.INCLUDE COMP5.CIR
.INCLUDE COMP6.CIR
.include conv.cir
.INCLUDE synapsenext2.CIR
.INCLUDE DCPULSER.CIR
.INCLUDE MULTISPLIT.CIR
.include transmit.cir
.INCLUDE DELAY7.CIR
.INCLUDE AND.CIR
.INCLUDE AND3.CIR
.INCLUDE OR3.CIR
.include PERCEPTRON.CIR
.include PERCEPTRON2.CIR
.include CONVINTERFACE.cir


# TRY SHIFTING CLK OF OUTPUT BACK A BIT...

.tran 1ps 10000PS 0ps 1p
#MLP:
#D=Oi.T + Oi.!Oj + T.!Oj 

#setup circuitry
VAC1   A1   0   SIN(0 723mV 10GHz 200Ps 0)
RAC1   A1   A2   1000
LAC1   A2   A3   0.1p
VAC2   B1   0   SIN(0 723mV 10GHz 175.0ps 0)
RAC2   B1   B2   1000
LAC2   B2   B3   0.1p
VDC    DC1   0   pwl(0 0 20p 1023mV)
RDC    DC1   DC2   1000
LDC    DC2   DC3  0.1p
#VDCconv    DCc1   0   PWL(0ps 0mV 20ps 1023mV 1.881e-08 1023mV 1.8811000000000002e-08 0)
VDCconv    DCc1   0   PWL(0ps 0mV 20ps 1023mV)

RDCconv    DCc1   DCc2  640
LDCconv    DCc2   DCc3   0.1p




#SECOND LAYER SYNAPSE 1
IINITAL21 0 INITIAL21 PWL( 0 0 20P flx21*2*22.6U)
XSTORE21 BISTORE SFQOUTPLUS21 SFQOUTMINUS21 WEIGHTL21 WEIGHTR21


#NEXT LAYER BIAS
#Iactualsynbias21 0 ACTUALSYNB21x PWL(0 0 640P 0 665P 670U 700P 0 840P 0 865P 670U 900P 0  1040P 0 1065P 670U 1100P 0 1240P 0 1265P 670U 1300P 0  )
LSYNB21 ACTUALSYNB21x ACTUALSYNB21 1p  
KSYNB21 LSYNB21 LSYNADJUSTB21 0.3
LSYNADJUSTB21 0 ADJUSTB21 5P 

#SPLIT TARGET BETWEEN 2 NEURONS
LTARGET1 TARGET0 TARGET1 1p
LTARGET2 TARGET0 TARGET2 1p

#SPLIT INPUTS BETWEEN 2 NEURONS
LINPUT1 IN1 INPUT11 1P
#LINPUT2 IN1 INPUT12 1P
LINPUT3 IN2 INPUT13 1P
#LINPUT4 IN2 INPUT14 1P
LINPUTBIAS11 INB11 INPUTB12 1P
#LINPUTBIAS12 INB11 INPUTB13 1P
#LINPUTBIASTERM INPUTB13 0 0.1p

#LTERM2 INPUT12 0 6.5p
#LTERM4 INPUT14 0 6.5p
#LTERM5 INPUTB13 0 6.5P



IINITALB21 0 INITIALB21 PWL( 0 0 20P flxb21*2*-22.6U)
XSTOREB21 BISTORE SFQOUTPLUSB21 SFQOUTMINUSB21 WEIGHTLB21 WEIGHTRB21

X21 SYNAPSEfastestnext2 OUTPUTAXON DOUT22 DOUT21  WEIGHTL21 WEIGHTR21 INITIAL21
XB21 SYNAPSEfastestnext2 ACTUALSYNB21  0 DOUT22   WEIGHTLB21 WEIGHTRB21 INITIALB21

.param flx11 = 0
.param flx12 = 2
.param flx13 = 2
.param flx14 = 0
.param flxb11 = 1
.param flxb12 = -1
.param flx21 = -1
.param flx22 = 3
.param flxb21 = 0


IINITAL11 0 INITIAL11 PWL( 0 0 20P -22U*2*flx11)
IINITALB11 0 INITIALB11 PWL( 0 0 20P -22u*2*flxb11)
IINITAL13 0 INITIAL13 PWL( 0 0 20P -22U*2*flx13)


##FINAL ACTIVATION - this works 
ITHRESH11 0 THRESH11 PWL(0 0 20p 15U)
ITHRESH21 0 THRESH21 PWL(0 0 20p -5U)
#was like 23u
XACTfinal COMP6 A5 DOUT21 A6  DC6 DC5   DOUTFINAL1 0   DOUTFINAL2 0   DOUTFINAL3 0   DOUTFINAL4  0 DOUTFINAL5 0 DOUTFINAL6 0   THRESH21

XNEURON1 3NEURON2 INPUT11 INPUT13 INPUTB12 TARGET1 DOUTFINAL1 DOUTFINAL2 THRESH11 A3 A5 B3 B4 DC3 DC5 DCC3 DCC4  OUTPUT1 0    OUTPUT2 0 OUTPUTAXON DELAYEDTARGETP 0 0 DELAYEDTARGETN   DELAYEDTARGETP2 0   INITIAL11 INITIAL13 INITIALB11
          #x3NEURON2 INPUT1 INPUT2 INPUTBIAS TARGET DOUTFINAL1 DOUTFINAL2 THRESH XIN1 XOUT1 XIN2 XOUT2 DCIN DCOUT DCCIN DCCOUT OUTPUT OUTPUTAXON

xbfrout1 bfrsplit4 B4 DOUTFINAL3 B6 dc6 DC8  0 actfinaloutp actfinaloutn 0 0 actfinaloutp2  actfinaloutn2 0 


xtargetdelay bfr B6 DELAYEDTARGETp b6x dc8 dc8x delayedtargetp21 0
xtargetdelay2 bfr A6 delayedtargetp21 A6x dc8X dc8xx delayedtargetp22 0

XDELAYin DELAY10 OUTPUT1 b6x b6xx A6x A6xx DC8xx DC8xxx  0 DELAYin1   DELAYin2 0
#xinputdelay bfr a6x OUTPUT1 a6xx dc8xxx dc8xx  delayedinput0 0
#xinputdelay2 bfr b6x delayedinput0 b6xx dc8xxx dc8xxxx delayedinput1 0

#add more so same clk
#XPERCEPTRON21 PERCEPTRON   B6  B7 A7 A6   OUTPUT1  actfinaloutp actfinaloutn DELAYEDTARGETP   DC8 DC9 INCR21 DECR21
#XPERCEPTRON21 PERCEPTRON2LAYER2   B6  B7 A7 A6   OUTPUT1  actfinaloutp actfinaloutn DELAYEDTARGETP   DC8 DC9 INCR21 DECR21

XPERCEPTRON21 PERCEPTRON2LAYER2   b6xx  B7 A7 A6Xx   delayin1  actfinaloutp actfinaloutn delayedtargetp22   DC8xxx DC9 INCR21 DECR21

XCONVO CONV A7 A8   DCC5 DCC4  INCR21 DECR21 SFQOUTPLUS21 SFQOUTMINUS21

#XPERCEPTRONb21 PERCEPTRON   B7  B8 A9 A8   ADJUSTB21  actfinaloutp2 actfinaloutn2 DELAYEDTARGETP2   DC9 DC10 INCRb21 DECRb21
XPERCEPTRONb21 PERCEPTRON2LAYER   B7  0 A9 A8   ADJUSTB21  actfinaloutp2 actfinaloutn2 DELAYEDTARGETP2   DC9 0 INCRb21 DECRb21

XCONVb21 CONV A9 0   0 DCC5  INCRb21 DECRb21 SFQOUTPLUSb21 SFQOUTMINUSb21









.PRINT DEVII IIN1
.PRINT DEVII IIN2
.PRINT DEVII ITARGET
.PRINT PHASE LQ.XACT11.XNEURON1
.PRINT PHASE LQ.XACTfinal

.print phase lstore1.x11.XNEURON1
.print phase lstore1.x12.XNEURON1
.print phase lstore1.xb11.XNEURON1
.print phase lstore1.X21
.print phase lstore1.Xb21

#.PRINT PHASE LQ.XACTfinal




.SUBCKT 3NEURON2 INPUT1 INPUT2 INPUTBIAS TARGET ACTNEXT1 ACTNEXT2 THRESH XIN1 XOUT1 XIN2 XOUT2 DCIN DCOUT DCCIN DCCOUT OUTPUT1 OUTPUT1GND OUTPUT2 OUTPUT2GND OUTPUTAXON DELAYOUTTARGET3 DELAYOUTTARGET3GND DELAYOUTTARGET4 DELAYOUTTARGET4GND DELAYOUTTARGET5 DELAYOUTTARGET5GND INITIAL11 INITIAL12 INITIALB11

#INPUTS
LSYN11 INPUT1 SYN11 1p  
LSYN12 INPUT2 SYN12 1p  
LSYNB11 INPUTBIAS SYNB11 1p  
LTARGET1 TARGET TARGET1 1p
LTARGET2 TARGET1 0 1p

#COUPLINGS
KSYN11 LSYN11 LSYNADJUST11 -0.1
KSYN12 LSYN12 LSYNADJUST12 -0.1
KSYNB11 LSYNB11 LSYNADJUSTB11 -0.1
KT1 LTARGET1 LADJUSTTARGET1 -0.05
KT2 LTARGET2 LADJUSTTARGET2 -0.05
LSYNADJUST11 0 ADJUST11 5P 
LSYNADJUST12 0 ADJUST12 5P 
LSYNADJUSTB11 0 ADJUSTB11 5P 
LADJUSTTARGET1 0 ADJUSTTARGET1 5P
LADJUSTTARGET2 0 ADJUSTTARGET2 5P


#SYNAPSE 1
#IINITAL11 0 INITIAL11 PWL( 0 0 20P -80U)
XSTORE11 BISTORE SFQOUTPLUS11 SFQOUTMINUS11 WEIGHTL11 WEIGHTR11
X11 SYNAPSEfastest SYN11 DOUT12 DOUT11 WEIGHTL11 WEIGHTR11 INITIAL11
#l111 SFQOUTPLUS11 0 1p
#l112 SFQOUTMINUS11 0 1p

#SYNAPSE 2
#IINITAL12 0 INITIAL12 PWL( 0 0 20P -80U)
XSTORE12 BISTORE SFQOUTPLUS12 SFQOUTMINUS12 WEIGHTL12 WEIGHTR12
X12 SYNAPSEfastest SYN12 DOUT13 DOUT12 WEIGHTL12 WEIGHTR12 INITIAL12
#l121 SFQOUTPLUS12 0 1p
#l122 SFQOUTMINUSB12 0 1p

#SYNAPSE BIAS
#IINITALB11 0 INITIALB11 PWL( 0 0 20P -80U)
XSTOREB11 BISTORE SFQOUTPLUSB11 SFQOUTMINUSB11 WEIGHTLB11 WEIGHTRB11
XB11 SYNAPSEfastest SYNB11 0 DOUT13 WEIGHTLB11 WEIGHTRB11 INITIALB11
#lB111 SFQOUTPLUSB11 0 1p
#lB112 SFQOUTMINUSB11 0 1p

#ACTIVATION
XACT11 COMP5 XIN1 DOUT11 A4 DCIN DC4 DOUTL11 0  0 DOUTR12  0 DOUTL13 OUTPUT1GND OUTPUT1 OUTPUT2GND OUTPUT2   THRESH

#AXON FOR OUTPUT
XTRANSMIT1 TRANSMIT DOUTL11 XIN2 B4 A4 A6 DC4 DC6 DCCIN DCC4 OUTPUTAXON

#DELAYS
XDELAYACT1 DELAY10 DOUTR12 B4 B5 A6 A7 DC6 DC7  DELAYOUT1 0  DELAYOUT2 0
XDELAYTARGET DELAY14 ADJUSTTARGET1 B5 B6 A7 A8 DC7 DC8  DELAYOUTTARGET1  0 DELAYOUTTARGET2 0
#XDELAYTARGET2 DELAY103 ADJUSTTARGET2 B7 B8 A9 A10 DC9 DC10  DELAYOUTTARGET3 DELAYOUTTARGET3GND   DELAYOUTTARGET4 DELAYOUTTARGET4GND DELAYOUTTARGET5  DELAYOUTTARGET5GND 
XDELAYTARGET2 DELAY143 ADJUSTTARGET2 B7 B8 A9 A10 DC9 DC10  DELAYOUTTARGET3 DELAYOUTTARGET3GND   DELAYOUTTARGET4 DELAYOUTTARGET4GND DELAYOUTTARGET5  DELAYOUTTARGET5GND 
#i think this was delay143


#LEARNING ALGORITHMS
#ASSUME DOUTFINAL1 0 DOUTFINAL2 0  DOUTFINAL3 0  0 DOUTFINAL4
#XMLP MLPNEW B6 B7 A8 A9 DELAYOUT1 DELAYOUT2 DELAYOUTTARGET1 DELAYOUTTARGET2 ACTNEXT1 ACTNEXT2 DC8 DC9 OUTPUTTARGET1L 0 OUTPUTTARGET2L 0 OUTPUTTARGET3L 0
#XDELAYTARGET2 DELAY18 ADJUSTTARGET2 B7 B8 A9 A10 DC9 dc10  DELAYOUTTARGET3GND DELAYOUTTARGET3  DELAYOUTTARGET4 DELAYOUTTARGET4GND  DELAYOUTTARGET5GND DELAYOUTTARGET5 
XMLP MLPNEW B6 B7 A8 A9 DELAYOUT1 DELAYOUT2 DELAYOUTTARGET1 DELAYOUTTARGET2 ACTNEXT1 ACTNEXT2 DC8 DC9   OUTPUTTARGET1L 0 OUTPUTTARGET2L 0 OUTPUTTARGET3L 0

XDELAYINPUT1 DELAY18 ADJUST11  B8  B9  A10 A11 DC10 DC11 DELAYOUTINPUT111 0 DELAYOUTINPUT112 0 DELAYOUTINPUT113 0 DELAYOUTINPUT114 0 DELAYOUTINPUT115 0 DELAYOUTINPUT116 0
XDELAYINPUT2 DELAY18 ADJUST12  B9  B10  A11 A12 DC11 DC12 DELAYOUTINPUT121 0 DELAYOUTINPUT122 0 DELAYOUTINPUT123 0 DELAYOUTINPUT124 0 DELAYOUTINPUT125 0 DELAYOUTINPUT126 0
XDELAYINPUTB1 DELAY18 ADJUSTB11  B10  B11  A12 A13 DC12 DC13 DELAYOUTINPUT1B1 0 DELAYOUTINPUT1B2 0 DELAYOUTINPUT1B3 0 DELAYOUTINPUT1B4 0 DELAYOUTINPUT1B5 0 DELAYOUTINPUT1B6 0

XDELAYact2 DELAY15 DOUTL13  B11 B12  A13 A14 DC13 DC14  DELAYOUTact111 0 0  DELAYOUTact112 DELAYOUTact113 0 0  DELAYOUTact114   DELAYOUTact115  0 0  DELAYOUTact116 
#XDELAYact2 DELAY15 DOUTL13  B11 B12  A13 A14 DC13 DC14  0 DELAYOUTact111 DELAYOUTact112 0 DELAYOUTact113 0 0  DELAYOUTact114   DELAYOUTact115  0 0  DELAYOUTact116 


XPERCEPTRON11 PERCEPTRON  B13 B12  A14 A15  DELAYOUTINPUT111 DELAYOUTact111 DELAYOUTact112 OUTPUTTARGET1L DC15 DC14 INCR11 DECR11
XPERCEPTRON12 PERCEPTRON  B14 B13  A15 A16  DELAYOUTINPUT121 DELAYOUTact113 DELAYOUTact114 OUTPUTTARGET2L DC16 DC15 INCR12 DECR12
XPERCEPTRONB11 PERCEPTRON  XOUT2 B14  A16 A17  DELAYOUTINPUT1B1 DELAYOUTact115 DELAYOUTact116 OUTPUTTARGET3L DCOUT DC16 INCRB11 DECRB11

XCONV11 CONV A17 A18 DCC5 DCC4 INCR11 DECR11 SFQOUTPLUS11 SFQOUTMINUS11
XCONV12 CONV A18 A19 DCC6 DCC5 INCR12 DECR12 SFQOUTPLUS12 SFQOUTMINUS12
XCONVB11 CONV A19 XOUT1 DCCOUT DCC6 INCRB11 DECRB11 SFQOUTPLUSB11 SFQOUTMINUSB11

.ENDS 3NEURON2


.SUBCKT MLPNEW XIN1 XOUT1 XIN2 XOUT2 OI1 OI2 T1 T2 OJ1 OJ2 DCIN DCOUT OUTPUTTARGET1L OUTPUTTARGET1R OUTPUTTARGET2L OUTPUTTARGET2R OUTPUTTARGET3L OUTPUTTARGET3R
#Oi.T
Xand1  AND  B7 XIN1  XIN2 A9  OI1 T1 DC9 DCIN  andout1
#Oi.!Oj
Xand2  AND B8 B7 A9 A10 OI2 OJ1 DC10 DC9 andout2
#T.!Oj
Xand3  AND B9 B8 A10 A11 T2 OJ2 DC11 DC10 andout3
#D=Oi.T + Oi.!Oj + T.!Oj 
X3OR OR3 B9 XOUT1 XOUT2 A11   ANDOUT1 ANDOUT2 ANDOUT3 DCOUT DC11  OUTPUTTARGET1L OUTPUTTARGET1R OUTPUTTARGET2L OUTPUTTARGET2R OUTPUTTARGET3L OUTPUTTARGET3R 
.ENDS MLPNEW













.SUBCKT DELAY10 INPUT XIN1 XOUT1 XIN2 XOUT2 DCIN DCOUT OUTPUT1L OUTPUT1R OUTPUT2L OUTPUT2R
XDELAY1 BFR XIN1 INPUT B5 DC7  DCIN  DELAYOUT1 0
XDELAY2 BFR A7 DELAYOUT1 XIN2 DC7 DC8   DELAYOUT2 0
XDELAY3 BFR B6 DELAYOUT2 B5 DC9 DC8   DELAYOUT3 0
XDELAY4 BFR A7 DELAYOUT3 A8 DC9 dc10    DELAYOUT4 0
XDELAY5 BFR B6 DELAYOUT4 B7 DC11 DC10    DELAYOUT5 0
XDELAY6 BFR A9 DELAYOUT5 A8 DC11 DC12    DELAYOUT6 0
XDELAY7 BFR B8 DELAYOUT6 B7  DC13 DC12     DELAYOUT7 0
XDELAY8 BFR A9 DELAYOUT7 A10  DC13 DC14     DELAYOUT8 0
XDELAY9 BFR B8 DELAYOUT8 XOUT1  DC15 DC14      DELAYOUT9 0
XDELAY10 bfrsplit2 XOUT2 DELAYOUT9 A10   DC15 DCOUT      OUTPUT1L OUTPUT1R OUTPUT2L OUTPUT2R
.ends DELAY10


.SUBCKT DELAY103 INPUT XIN1 XOUT1 XIN2 XOUT2 DCIN DCOUT OUTPUT1L OUTPUT1R OUTPUT2L OUTPUT2R  OUTPUT3L OUTPUT3R

XDELAY1 BFR XIN1 INPUT B5 DC7  DCIN  DELAYOUT1 0
XDELAY2 BFR A7 DELAYOUT1 XIN2 DC7 DC8   DELAYOUT2 0
XDELAY3 BFR B6 DELAYOUT2 B5 DC9 DC8   DELAYOUT3 0
XDELAY4 BFR A7 DELAYOUT3 A8 DC9 dc10    DELAYOUT4 0
XDELAY5 BFR B6 DELAYOUT4 B7 DC11 DC10    DELAYOUT5 0
XDELAY6 BFR XOUT2 DELAYOUT5 A8 DC11 DC12    DELAYOUT6 0
XDELAY7 bfrsplit3 XOUT1 DELAYOUT6 B7  DCOUT DC12 OUTPUT1L OUTPUT1R OUTPUT2L OUTPUT2R OUTPUT3L OUTPUT3R

.ends DELAY103


.SUBCKT DELAY11 INPUT XIN1 XOUT1 XIN2 XOUT2 DCIN DCOUT OUTPUT1L OUTPUT1R OUTPUT2L OUTPUT2R
XDELAY1 BFR XIN1 INPUT B5 DC7  DCIN  DELAYOUT1 0
XDELAY2 BFR A7 DELAYOUT1 XIN2 DC7 DC8   DELAYOUT2 0
XDELAY3 BFR B6 DELAYOUT2 B5 DC9 DC8   DELAYOUT3 0
XDELAY4 BFR A7 DELAYOUT3 A8 DC9 dc10    DELAYOUT4 0
XDELAY5 BFR B6 DELAYOUT4 B7 DC11 DC10    DELAYOUT5 0
XDELAY6 BFR A9 DELAYOUT5 A8 DC11 DC12    DELAYOUT6 0
XDELAY7 BFR B8 DELAYOUT6 B7  DC13 DC12     DELAYOUT7 0
XDELAY8 BFR A9 DELAYOUT7 A10  DC13 DC14     DELAYOUT8 0
XDELAY9 BFR B8 DELAYOUT8 B9  DC15 DC14      DELAYOUT9 0
XDELAY10 BFR XOUT2 DELAYOUT9 A10   DC15 DC16   DELAYOUT10 0
XDELAY11 bfrsplit2 XOUT1 DELAYOUT10 B9   DCOUT DC16   OUTPUT1L OUTPUT1R OUTPUT2L OUTPUT2R

.ends DELAY11


.SUBCKT DELAY113 INPUT XIN1 XOUT1 XIN2 XOUT2 DCIN DCOUT OUTPUT1L OUTPUT1R OUTPUT2L OUTPUT2R OUTPUT3L OUTPUT3R
XDELAY1 BFR XIN1 INPUT B5 DC7  DCIN  DELAYOUT1 0
XDELAY2 BFR A7 DELAYOUT1 XIN2 DC7 DC8   DELAYOUT2 0
XDELAY3 BFR B6 DELAYOUT2 B5 DC9 DC8   DELAYOUT3 0
XDELAY4 BFR A7 DELAYOUT3 A8 DC9 dc10    DELAYOUT4 0
XDELAY5 BFR B6 DELAYOUT4 B7 DC11 DC10    DELAYOUT5 0
XDELAY6 BFR A9 DELAYOUT5 A8 DC11 DC12    DELAYOUT6 0
XDELAY7 BFR B8 DELAYOUT6 B7  DC13 DC12     DELAYOUT7 0
XDELAY8 BFR A9 DELAYOUT7 A10  DC13 DC14     DELAYOUT8 0
XDELAY9 BFR B8 DELAYOUT8 B9  DC15 DC14      DELAYOUT9 0
XDELAY10 BFR XOUT2 DELAYOUT9 A10   DC15 DC16   DELAYOUT10 0
XDELAY11 bfrsplit3 XOUT1 DELAYOUT10 B9   DCOUT DC16   OUTPUT1L OUTPUT1R OUTPUT2L OUTPUT2R OUTPUT3L OUTPUT3R

.ends DELAY113




.SUBCKT DELAY14 INPUT XIN1 XOUT1 XIN2 XOUT2 DCIN DCOUT OUTPUT1L OUTPUT1R OUTPUT2L OUTPUT2R

XDELAY1 BFR XIN1 INPUT B5 DC7  DCIN  DELAYOUT1 0
XDELAY2 BFR A7 DELAYOUT1 XIN2 DC7 DC8   DELAYOUT2 0
XDELAY3 BFR B6 DELAYOUT2 B5 DC9 DC8   DELAYOUT3 0
XDELAY4 BFR A7 DELAYOUT3 A8 DC9 dc10    DELAYOUT4 0
XDELAY5 BFR B6 DELAYOUT4 B7 DC11 DC10    DELAYOUT5 0
XDELAY6 BFR A9 DELAYOUT5 A8 DC11 DC12    DELAYOUT6 0
XDELAY7 BFR B8 DELAYOUT6 B7  DC13 DC12     DELAYOUT7 0
XDELAY8 BFR A9 DELAYOUT7 A10  DC13 DC14     DELAYOUT8 0
XDELAY9 BFR B8 DELAYOUT8 B9  DC15 DC14      DELAYOUT9 0
XDELAY10 BFR A11 DELAYOUT9 A10   DC15 DC16   DELAYOUT10 0
XDELAY11 BFR B10 DELAYOUT10 B9   DC17 DC16   DELAYOUT11 0
XDELAY12 BFR A11 DELAYOUT11 A12   DC17 DC18  DELAYOUT12 0
XDELAY13 BFR B10 DELAYOUT12 XOUT1  DC19 DC18  DELAYOUT13 0
XDELAY14 bfrsplit2 XOUT2 DELAYOUT13 A12  DC19 DCOUT  OUTPUT1L OUTPUT1R OUTPUT2L OUTPUT2R
#XDELAY14 bfrsplit5 XOUT2 DELAYOUT13 A12  DC19 DCOUT  OUTPUT1L OUTPUT1R OUTPUT2L OUTPUT2R OUTPUT3L OUTPUT3R OUTPUT4L OUTPUT4R OUTPUT5L OUTPUT5R

.ends DELAY14


.SUBCKT DELAY143 INPUT XIN1 XOUT1 XIN2 XOUT2 DCIN DCOUT OUTPUT1L OUTPUT1R OUTPUT2L OUTPUT2R OUTPUT3L OUTPUT3R

XDELAY1 BFR XIN1 INPUT B5 DC7  DCIN  DELAYOUT1 0
XDELAY2 BFR A7 DELAYOUT1 XIN2 DC7 DC8   DELAYOUT2 0
XDELAY3 BFR B6 DELAYOUT2 B5 DC9 DC8   DELAYOUT3 0
XDELAY4 BFR A7 DELAYOUT3 A8 DC9 dc10    DELAYOUT4 0
XDELAY5 BFR B6 DELAYOUT4 B7 DC11 DC10    DELAYOUT5 0
XDELAY6 BFR A9 DELAYOUT5 A8 DC11 DC12    DELAYOUT6 0
XDELAY7 BFR B8 DELAYOUT6 B7  DC13 DC12     DELAYOUT7 0
XDELAY8 BFR A9 DELAYOUT7 A10  DC13 DC14     DELAYOUT8 0
XDELAY9 BFR B8 DELAYOUT8 B9  DC15 DC14      DELAYOUT9 0
XDELAY10 BFR A11 DELAYOUT9 A10   DC15 DC16   DELAYOUT10 0
XDELAY11 BFR B10 DELAYOUT10 B9   DC17 DC16   DELAYOUT11 0
XDELAY12 BFR A11 DELAYOUT11 A12   DC17 DC18  DELAYOUT12 0
XDELAY13 BFR B10 DELAYOUT12 XOUT1  DC19 DC18  DELAYOUT13 0
XDELAY14 bfrsplit3 XOUT2 DELAYOUT13 A12  DC19 DCOUT  OUTPUT1L OUTPUT1R OUTPUT2L OUTPUT2R OUTPUT3L OUTPUT3R
#XDELAY14 bfrsplit5 XOUT2 DELAYOUT13 A12  DC19 DCOUT  OUTPUT1L OUTPUT1R OUTPUT2L OUTPUT2R OUTPUT3L OUTPUT3R OUTPUT4L OUTPUT4R OUTPUT5L OUTPUT5R

.ends DELAY143

.SUBCKT DELAY15 INPUT XIN1 XOUT1 XIN2 XOUT2 DCIN DCOUT OUTPUT1L OUTPUT1R OUTPUT2L OUTPUT2R OUTPUT3L OUTPUT3R OUTPUT4L OUTPUT4R OUTPUT5L OUTPUT5R OUTPUT6L OUTPUT6R
XDELAY1 BFR XIN1 INPUT B5 DC7  DCIN  DELAYOUT1 0
XDELAY2 BFR A7 DELAYOUT1 XIN2 DC7 DC8   DELAYOUT2 0
XDELAY3 BFR B6 DELAYOUT2 B5 DC9 DC8   DELAYOUT3 0
XDELAY4 BFR A7 DELAYOUT3 A8 DC9 dc10    DELAYOUT4 0
XDELAY5 BFR B6 DELAYOUT4 B7 DC11 DC10    DELAYOUT5 0
XDELAY6 BFR A9 DELAYOUT5 A8 DC11 DC12    DELAYOUT6 0
XDELAY7 BFR B8 DELAYOUT6 B7  DC13 DC12     DELAYOUT7 0
XDELAY8 BFR A9 DELAYOUT7 A10  DC13 DC14     DELAYOUT8 0
XDELAY9 BFR B8 DELAYOUT8 B9  DC15 DC14      DELAYOUT9 0
XDELAY10 BFR A11 DELAYOUT9 A10   DC15 DC16   DELAYOUT10 0
XDELAY11 BFR B10 DELAYOUT10 B9   DC17 DC16   DELAYOUT11 0
XDELAY12 BFR A11 DELAYOUT11 A12   DC17 DC18  DELAYOUT12 0
XDELAY13 BFR B10 DELAYOUT12 B11  DC19 DC18  DELAYOUT13 0
XDELAY14 BFR XOUT2 DELAYOUT13 A12  DC19 DC20  DELAYOUT14 0

XDELAY15 bfrsplit6 XOUT1 DELAYOUT14 B11 DCOUT DC20  OUTPUT1L OUTPUT1R OUTPUT2L OUTPUT2R OUTPUT3L OUTPUT3R OUTPUT4L OUTPUT4R OUTPUT5L OUTPUT5R OUTPUT6L OUTPUT6R

.ends DELAY15

.SUBCKT DELAY153 INPUT XIN1 XOUT1 XIN2 XOUT2 DCIN DCOUT OUTPUT1L OUTPUT1R OUTPUT2L OUTPUT2R OUTPUT3L OUTPUT3R 
XDELAY1 BFR XIN1 INPUT B5 DC7  DCIN  DELAYOUT1 0
XDELAY2 BFR A7 DELAYOUT1 XIN2 DC7 DC8   DELAYOUT2 0
XDELAY3 BFR B6 DELAYOUT2 B5 DC9 DC8   DELAYOUT3 0
XDELAY4 BFR A7 DELAYOUT3 A8 DC9 dc10    DELAYOUT4 0
XDELAY5 BFR B6 DELAYOUT4 B7 DC11 DC10    DELAYOUT5 0
XDELAY6 BFR A9 DELAYOUT5 A8 DC11 DC12    DELAYOUT6 0
XDELAY7 BFR B8 DELAYOUT6 B7  DC13 DC12     DELAYOUT7 0
XDELAY8 BFR A9 DELAYOUT7 A10  DC13 DC14     DELAYOUT8 0
XDELAY9 BFR B8 DELAYOUT8 B9  DC15 DC14      DELAYOUT9 0
XDELAY10 BFR A11 DELAYOUT9 A10   DC15 DC16   DELAYOUT10 0
XDELAY11 BFR B10 DELAYOUT10 B9   DC17 DC16   DELAYOUT11 0
XDELAY12 BFR A11 DELAYOUT11 A12   DC17 DC18  DELAYOUT12 0
XDELAY13 BFR B10 DELAYOUT12 B11  DC19 DC18  DELAYOUT13 0
XDELAY14 BFR XOUT2 DELAYOUT13 A12  DC19 DC20  DELAYOUT14 0

XDELAY15 bfrsplit3 XOUT1 DELAYOUT14 B11 DCOUT DC20  OUTPUT1L OUTPUT1R OUTPUT2L OUTPUT2R OUTPUT3L OUTPUT3R 

.ends DELAY153



.SUBCKT DELAY16 INPUT XIN1 XOUT1 XIN2 XOUT2 DCIN DCOUT OUTPUT1L OUTPUT1R OUTPUT2L OUTPUT2R
XDELAY1 BFR XIN1 INPUT B5 DC7  DCIN  DELAYOUT1 0
XDELAY2 BFR A7 DELAYOUT1 XIN2 DC7 DC8   DELAYOUT2 0
XDELAY3 BFR B6 DELAYOUT2 B5 DC9 DC8   DELAYOUT3 0
XDELAY4 BFR A7 DELAYOUT3 A8 DC9 dc10    DELAYOUT4 0
XDELAY5 BFR B6 DELAYOUT4 B7 DC11 DC10    DELAYOUT5 0
XDELAY6 BFR A9 DELAYOUT5 A8 DC11 DC12    DELAYOUT6 0
XDELAY7 BFR B8 DELAYOUT6 B7  DC13 DC12     DELAYOUT7 0
XDELAY8 BFR A9 DELAYOUT7 A10  DC13 DC14     DELAYOUT8 0
XDELAY9 BFR B8 DELAYOUT8 B9  DC15 DC14      DELAYOUT9 0
XDELAY10 BFR A11 DELAYOUT9 A10   DC15 DC16   DELAYOUT10 0
XDELAY11 BFR B10 DELAYOUT10 B9   DC17 DC16   DELAYOUT11 0
XDELAY12 BFR A11 DELAYOUT11 A12   DC17 DC18  DELAYOUT12 0
XDELAY13 BFR B10 DELAYOUT12 B11  DC19 DC18  DELAYOUT13 0
XDELAY14 BFR A13 DELAYOUT13 A12  DC19 DC20  DELAYOUT14 0
XDELAY15 BFR XOUT1 DELAYOUT14 B11  DC21 DC20  DELAYOUT15 0
XDELAY16 bfrsplit2 A13 DELAYOUT15 XOUT2  DC21 DCOUT  OUTPUT1L OUTPUT1R OUTPUT2L OUTPUT2R
.ends DELAY16

.SUBCKT DELAY163 INPUT XIN1 XOUT1 XIN2 XOUT2 DCIN DCOUT OUTPUT1L OUTPUT1R OUTPUT2L OUTPUT2R OUTPUT3L OUTPUT3R
XDELAY1 BFR XIN1 INPUT B5 DC7  DCIN  DELAYOUT1 0
XDELAY2 BFR A7 DELAYOUT1 XIN2 DC7 DC8   DELAYOUT2 0
XDELAY3 BFR B6 DELAYOUT2 B5 DC9 DC8   DELAYOUT3 0
XDELAY4 BFR A7 DELAYOUT3 A8 DC9 dc10    DELAYOUT4 0
XDELAY5 BFR B6 DELAYOUT4 B7 DC11 DC10    DELAYOUT5 0
XDELAY6 BFR A9 DELAYOUT5 A8 DC11 DC12    DELAYOUT6 0
XDELAY7 BFR B8 DELAYOUT6 B7  DC13 DC12     DELAYOUT7 0
XDELAY8 BFR A9 DELAYOUT7 A10  DC13 DC14     DELAYOUT8 0
XDELAY9 BFR B8 DELAYOUT8 B9  DC15 DC14      DELAYOUT9 0
XDELAY10 BFR A11 DELAYOUT9 A10   DC15 DC16   DELAYOUT10 0
XDELAY11 BFR B10 DELAYOUT10 B9   DC17 DC16   DELAYOUT11 0
XDELAY12 BFR A11 DELAYOUT11 A12   DC17 DC18  DELAYOUT12 0
XDELAY13 BFR B10 DELAYOUT12 B11  DC19 DC18  DELAYOUT13 0
XDELAY14 BFR A13 DELAYOUT13 A12  DC19 DC20  DELAYOUT14 0
XDELAY15 BFR XOUT1 DELAYOUT14 B11  DC21 DC20  DELAYOUT15 0
XDELAY16 bfrsplit3 A13 DELAYOUT15 XOUT2  DC21 DCOUT  OUTPUT1L OUTPUT1R OUTPUT2L OUTPUT2R OUTPUT3L OUTPUT3R
.ends DELAY163


.SUBCKT DELAY18 INPUT XIN1 XOUT1 XIN2 XOUT2 DCIN DCOUT OUTPUT1L OUTPUT1R OUTPUT2L OUTPUT2R OUTPUT3L OUTPUT3R
XDELAY1 BFR XIN1 INPUT B5 DC7  DCIN  DELAYOUT1 0
XDELAY2 BFR A7 DELAYOUT1 XIN2 DC7 DC8   DELAYOUT2 0
XDELAY3 BFR B6 DELAYOUT2 B5 DC9 DC8   DELAYOUT3 0
XDELAY4 BFR A7 DELAYOUT3 A8 DC9 dc10    DELAYOUT4 0
XDELAY5 BFR B6 DELAYOUT4 B7 DC11 DC10    DELAYOUT5 0
XDELAY6 BFR A9 DELAYOUT5 A8 DC11 DC12    DELAYOUT6 0
XDELAY7 BFR B8 DELAYOUT6 B7  DC13 DC12     DELAYOUT7 0
XDELAY8 BFR A9 DELAYOUT7 A10  DC13 DC14     DELAYOUT8 0
XDELAY9 BFR B8 DELAYOUT8 B9  DC15 DC14      DELAYOUT9 0
XDELAY10 BFR A11 DELAYOUT9 A10   DC15 DC16   DELAYOUT10 0
XDELAY11 BFR B10 DELAYOUT10 B9   DC17 DC16   DELAYOUT11 0
XDELAY12 BFR A11 DELAYOUT11 A12   DC17 DC18  DELAYOUT12 0
XDELAY13 BFR B10 DELAYOUT12 B11  DC19 DC18  DELAYOUT13 0
XDELAY14 BFR A13 DELAYOUT13 A12  DC19 DC20  DELAYOUT14 0
XDELAY15 BFR B12 DELAYOUT14 B11  DC21 DC20  DELAYOUT15 0
XDELAY16 BFR A13 DELAYOUT15 A14  DC21 DC22  DELAYOUT16 0
XDELAY17 BFR B12 DELAYOUT16 XOUT1  DC23 DC22  DELAYOUT17 0
XDELAY18 bfrsplit3 XOUT2 DELAYOUT17 A14 DC23 DCOUT  OUTPUT1L OUTPUT1R OUTPUT2L OUTPUT2R  OUTPUT3L OUTPUT3R


.ends DELAY18

***    INPUTS  ***
IIN1 0 IN1 PWL(0 0 20P 0 1.55000e-09 0.00000e+00 1.55500e-09 1.00000e-03 1.60500e-09 1.00000e-03
+ 1.61000e-09 0.00000e+00 3.55000e-09 0.00000e+00 3.55500e-09 1.00000e-03
+ 3.60500e-09 1.00000e-03 3.61000e-09 0.00000e+00 5.55000e-09 0.00000e+00
+ 5.55500e-09 1.00000e-03 5.60500e-09 1.00000e-03 5.61000e-09 0.00000e+00
+ 7.55000e-09 0.00000e+00 7.55500e-09 1.00000e-03 7.60500e-09 1.00000e-03
+ 7.61000e-09 0.00000e+00 9.55000e-09 0.00000e+00 9.55500e-09 1.00000e-03
+ 9.60500e-09 1.00000e-03 9.61000e-09 0.00000e+00 1.15500e-08 0.00000e+00
+ 1.15550e-08 1.00000e-03 1.16050e-08 1.00000e-03 1.16100e-08 0.00000e+00
+ 1.35500e-08 0.00000e+00 1.35550e-08 1.00000e-03 1.36050e-08 1.00000e-03
+ 1.36100e-08 0.00000e+00 1.55500e-08 0.00000e+00 1.55550e-08 1.00000e-03
+ 1.56050e-08 1.00000e-03 1.56100e-08 0.00000e+00 1.75500e-08 0.00000e+00
+ 1.75550e-08 1.00000e-03 1.76050e-08 1.00000e-03 1.76100e-08 0.00000e+00
+ 1.95500e-08 0.00000e+00 1.95550e-08 1.00000e-03 1.96050e-08 1.00000e-03
+ 1.96100e-08 0.00000e+00 2.15500e-08 0.00000e+00 2.15550e-08 1.00000e-03
+ 2.16050e-08 1.00000e-03 2.16100e-08 0.00000e+00 2.35500e-08 0.00000e+00
+ 2.35550e-08 1.00000e-03 2.36050e-08 1.00000e-03 2.36100e-08 0.00000e+00
+ 2.55500e-08 0.00000e+00 2.55550e-08 1.00000e-03 2.56050e-08 1.00000e-03
+ 2.56100e-08 0.00000e+00 2.75500e-08 0.00000e+00 2.75550e-08 1.00000e-03
+ 2.76050e-08 1.00000e-03 2.76100e-08 0.00000e+00 2.95500e-08 0.00000e+00
+ 2.95550e-08 1.00000e-03 2.96050e-08 1.00000e-03 2.96100e-08 0.00000e+00
+ 3.15500e-08 0.00000e+00 3.15550e-08 1.00000e-03 3.16050e-08 1.00000e-03
+ 3.16100e-08 0.00000e+00 3.35500e-08 0.00000e+00 3.35550e-08 1.00000e-03
+ 3.36050e-08 1.00000e-03 3.36100e-08 0.00000e+00 3.55500e-08 0.00000e+00
+ 3.55550e-08 1.00000e-03 3.56050e-08 1.00000e-03 3.56100e-08 0.00000e+00
+ 3.75500e-08 0.00000e+00 3.75550e-08 1.00000e-03 3.76050e-08 1.00000e-03
+ 3.76100e-08 0.00000e+00 3.95500e-08 0.00000e+00 3.95550e-08 1.00000e-03
+ 3.96050e-08 1.00000e-03 3.96100e-08 0.00000e+00 4.15500e-08 0.00000e+00
+ 4.15550e-08 1.00000e-03 4.16050e-08 1.00000e-03 4.16100e-08 0.00000e+00
+ 4.35500e-08 0.00000e+00 4.35550e-08 1.00000e-03 4.36050e-08 1.00000e-03
+ 4.36100e-08 0.00000e+00 4.55500e-08 0.00000e+00 4.55550e-08 1.00000e-03
+ 4.56050e-08 1.00000e-03 4.56100e-08 0.00000e+00 4.75500e-08 0.00000e+00
+ 4.75550e-08 1.00000e-03 4.76050e-08 1.00000e-03 4.76100e-08 0.00000e+00
+ 4.95500e-08 0.00000e+00 4.95550e-08 1.00000e-03 4.96050e-08 1.00000e-03
+ 4.96100e-08 0.00000e+00 5.15500e-08 0.00000e+00 5.15550e-08 1.00000e-03
+ 5.16050e-08 1.00000e-03 5.16100e-08 0.00000e+00 5.35500e-08 0.00000e+00
+ 5.35550e-08 1.00000e-03 5.36050e-08 1.00000e-03 5.36100e-08 0.00000e+00
+ 5.55500e-08 0.00000e+00 5.55550e-08 1.00000e-03 5.56050e-08 1.00000e-03
+ 5.56100e-08 0.00000e+00 5.75500e-08 0.00000e+00 5.75550e-08 1.00000e-03
+ 5.76050e-08 1.00000e-03 5.76100e-08 0.00000e+00 5.95500e-08 0.00000e+00
+ 5.95550e-08 1.00000e-03 5.96050e-08 1.00000e-03 5.96100e-08 0.00000e+00
+ 6.15500e-08 0.00000e+00 6.15550e-08 1.00000e-03 6.16050e-08 1.00000e-03
+ 6.16100e-08 0.00000e+00 6.35500e-08 0.00000e+00 6.35550e-08 1.00000e-03
+ 6.36050e-08 1.00000e-03 6.36100e-08 0.00000e+00 6.55500e-08 0.00000e+00
+ 6.55550e-08 1.00000e-03 6.56050e-08 1.00000e-03 6.56100e-08 0.00000e+00
+ 6.75500e-08 0.00000e+00 6.75550e-08 1.00000e-03 6.76050e-08 1.00000e-03
+ 6.76100e-08 0.00000e+00 6.95500e-08 0.00000e+00 6.95550e-08 1.00000e-03
+ 6.96050e-08 1.00000e-03 6.96100e-08 0.00000e+00 7.15500e-08 0.00000e+00
+ 7.15550e-08 1.00000e-03 7.16050e-08 1.00000e-03 7.16100e-08 0.00000e+00
+ 7.35500e-08 0.00000e+00 7.35550e-08 1.00000e-03 7.36050e-08 1.00000e-03
+ 7.36100e-08 0.00000e+00 7.55500e-08 0.00000e+00 7.55550e-08 1.00000e-03
+ 7.56050e-08 1.00000e-03 7.56100e-08 0.00000e+00 7.75500e-08 0.00000e+00
+ 7.75550e-08 1.00000e-03 7.76050e-08 1.00000e-03 7.76100e-08 0.00000e+00
+ 7.95500e-08 0.00000e+00 7.95550e-08 1.00000e-03 7.96050e-08 1.00000e-03
+ 7.96100e-08 0.00000e+00 8.15500e-08 0.00000e+00 8.15550e-08 1.00000e-03
+ 8.16050e-08 1.00000e-03 8.16100e-08 0.00000e+00 8.35500e-08 0.00000e+00
+ 8.35550e-08 1.00000e-03 8.36050e-08 1.00000e-03 8.36100e-08 0.00000e+00
+ 8.55500e-08 0.00000e+00 8.55550e-08 1.00000e-03 8.56050e-08 1.00000e-03
+ 8.56100e-08 0.00000e+00 8.75500e-08 0.00000e+00 8.75550e-08 1.00000e-03
+ 8.76050e-08 1.00000e-03 8.76100e-08 0.00000e+00 8.95500e-08 0.00000e+00
+ 8.95550e-08 1.00000e-03 8.96050e-08 1.00000e-03 8.96100e-08 0.00000e+00
+ 9.15500e-08 0.00000e+00 9.15550e-08 1.00000e-03 9.16050e-08 1.00000e-03
+ 9.16100e-08 0.00000e+00 9.35500e-08 0.00000e+00 9.35550e-08 1.00000e-03
+ 9.36050e-08 1.00000e-03 9.36100e-08 0.00000e+00 9.55500e-08 0.00000e+00
+ 9.55550e-08 1.00000e-03 9.56050e-08 1.00000e-03 9.56100e-08 0.00000e+00
+ 9.75500e-08 0.00000e+00 9.75550e-08 1.00000e-03 9.76050e-08 1.00000e-03
+ 9.76100e-08 0.00000e+00 9.95500e-08 0.00000e+00 9.95550e-08 1.00000e-03
+ 9.96050e-08 1.00000e-03 9.96100e-08 0.00000e+00 1.01550e-07 0.00000e+00
+ 1.01555e-07 1.00000e-03 1.01605e-07 1.00000e-03 1.01610e-07 0.00000e+00
+ 1.03550e-07 0.00000e+00 1.03555e-07 1.00000e-03 1.03605e-07 1.00000e-03
+ 1.03610e-07 0.00000e+00 1.05550e-07 0.00000e+00 1.05555e-07 1.00000e-03
+ 1.05605e-07 1.00000e-03 1.05610e-07 0.00000e+00 1.07550e-07 0.00000e+00
+ 1.07555e-07 1.00000e-03 1.07605e-07 1.00000e-03 1.07610e-07 0.00000e+00
+ 1.09550e-07 0.00000e+00 1.09555e-07 1.00000e-03 1.09605e-07 1.00000e-03
+ 1.09610e-07 0.00000e+00 1.11550e-07 0.00000e+00 1.11555e-07 1.00000e-03
+ 1.11605e-07 1.00000e-03 1.11610e-07 0.00000e+00 1.13550e-07 0.00000e+00
+ 1.13555e-07 1.00000e-03 1.13605e-07 1.00000e-03 1.13610e-07 0.00000e+00
+ 1.15550e-07 0.00000e+00 1.15555e-07 1.00000e-03 1.15605e-07 1.00000e-03
+ 1.15610e-07 0.00000e+00 1.17550e-07 0.00000e+00 1.17555e-07 1.00000e-03
+ 1.17605e-07 1.00000e-03 1.17610e-07 0.00000e+00 1.19550e-07 0.00000e+00
+ 1.19555e-07 1.00000e-03 1.19605e-07 1.00000e-03 1.19610e-07 0.00000e+00
+ 1.21550e-07 0.00000e+00 1.21555e-07 1.00000e-03 1.21605e-07 1.00000e-03
+ 1.21610e-07 0.00000e+00 1.23550e-07 0.00000e+00 1.23555e-07 1.00000e-03
+ 1.23605e-07 1.00000e-03 1.23610e-07 0.00000e+00 1.25550e-07 0.00000e+00
+ 1.25555e-07 1.00000e-03 1.25605e-07 1.00000e-03 1.25610e-07 0.00000e+00
+ 1.27550e-07 0.00000e+00 1.27555e-07 1.00000e-03 1.27605e-07 1.00000e-03
+ 1.27610e-07 0.00000e+00 1.29550e-07 0.00000e+00 1.29555e-07 1.00000e-03
+ 1.29605e-07 1.00000e-03 1.29610e-07 0.00000e+00 1.31550e-07 0.00000e+00
+ 1.31555e-07 1.00000e-03 1.31605e-07 1.00000e-03 1.31610e-07 0.00000e+00
+ 1.33550e-07 0.00000e+00 1.33555e-07 1.00000e-03 1.33605e-07 1.00000e-03
+ 1.33610e-07 0.00000e+00 1.35550e-07 0.00000e+00 1.35555e-07 1.00000e-03
+ 1.35605e-07 1.00000e-03 1.35610e-07 0.00000e+00 1.37550e-07 0.00000e+00
+ 1.37555e-07 1.00000e-03 1.37605e-07 1.00000e-03 1.37610e-07 0.00000e+00
+ 1.39550e-07 0.00000e+00 1.39555e-07 1.00000e-03 1.39605e-07 1.00000e-03
+ 1.39610e-07 0.00000e+00 1.41550e-07 0.00000e+00 1.41555e-07 1.00000e-03
+ 1.41605e-07 1.00000e-03 1.41610e-07 0.00000e+00 1.43550e-07 0.00000e+00
+ 1.43555e-07 1.00000e-03 1.43605e-07 1.00000e-03 1.43610e-07 0.00000e+00
+ 1.45550e-07 0.00000e+00 1.45555e-07 1.00000e-03 1.45605e-07 1.00000e-03
+ 1.45610e-07 0.00000e+00 1.47550e-07 0.00000e+00 1.47555e-07 1.00000e-03
+ 1.47605e-07 1.00000e-03 1.47610e-07 0.00000e+00 1.49550e-07 0.00000e+00
+ 1.49555e-07 1.00000e-03 1.49605e-07 1.00000e-03 1.49610e-07 0.00000e+00
+ 1.51550e-07 0.00000e+00 1.51555e-07 1.00000e-03 1.51605e-07 1.00000e-03
+ 1.51610e-07 0.00000e+00 1.53550e-07 0.00000e+00 1.53555e-07 1.00000e-03
+ 1.53605e-07 1.00000e-03 1.53610e-07 0.00000e+00 1.55550e-07 0.00000e+00
+ 1.55555e-07 1.00000e-03 1.55605e-07 1.00000e-03 1.55610e-07 0.00000e+00
+ 1.57550e-07 0.00000e+00 1.57555e-07 1.00000e-03 1.57605e-07 1.00000e-03
+ 1.57610e-07 0.00000e+00 1.59550e-07 0.00000e+00 1.59555e-07 1.00000e-03
+ 1.59605e-07 1.00000e-03 1.59610e-07 0.00000e+00 1.61550e-07 0.00000e+00
+ 1.61555e-07 1.00000e-03 1.61605e-07 1.00000e-03 1.61610e-07 0.00000e+00
+ 1.63550e-07 0.00000e+00 1.63555e-07 1.00000e-03 1.63605e-07 1.00000e-03
+ 1.63610e-07 0.00000e+00 1.65550e-07 0.00000e+00 1.65555e-07 1.00000e-03
+ 1.65605e-07 1.00000e-03 1.65610e-07 0.00000e+00 1.67550e-07 0.00000e+00
+ 1.67555e-07 1.00000e-03 1.67605e-07 1.00000e-03 1.67610e-07 0.00000e+00
+ 1.69550e-07 0.00000e+00 1.69555e-07 1.00000e-03 1.69605e-07 1.00000e-03
+ 1.69610e-07 0.00000e+00 1.71550e-07 0.00000e+00 1.71555e-07 1.00000e-03
+ 1.71605e-07 1.00000e-03 1.71610e-07 0.00000e+00 1.73550e-07 0.00000e+00
+ 1.73555e-07 1.00000e-03 1.73605e-07 1.00000e-03 1.73610e-07 0.00000e+00
+ 1.75550e-07 0.00000e+00 1.75555e-07 1.00000e-03 1.75605e-07 1.00000e-03
+ 1.75610e-07 0.00000e+00 1.77550e-07 0.00000e+00 1.77555e-07 1.00000e-03
+ 1.77605e-07 1.00000e-03 1.77610e-07 0.00000e+00 1.79550e-07 0.00000e+00
+ 1.79555e-07 1.00000e-03 1.79605e-07 1.00000e-03 1.79610e-07 0.00000e+00
+ 1.81550e-07 0.00000e+00 1.81555e-07 1.00000e-03 1.81605e-07 1.00000e-03
+ 1.81610e-07 0.00000e+00 1.83550e-07 0.00000e+00 1.83555e-07 1.00000e-03
+ 1.83605e-07 1.00000e-03 1.83610e-07 0.00000e+00 1.85550e-07 0.00000e+00
+ 1.85555e-07 1.00000e-03 1.85605e-07 1.00000e-03 1.85610e-07 0.00000e+00
+ 1.87550e-07 0.00000e+00 1.87555e-07 1.00000e-03 1.87605e-07 1.00000e-03
+ 1.87610e-07 0.00000e+00 1.89550e-07 0.00000e+00 1.89555e-07 1.00000e-03
+ 1.89605e-07 1.00000e-03 1.89610e-07 0.00000e+00 1.91550e-07 0.00000e+00
+ 1.91555e-07 1.00000e-03 1.91605e-07 1.00000e-03 1.91610e-07 0.00000e+00
+ 1.93550e-07 0.00000e+00 1.93555e-07 1.00000e-03 1.93605e-07 1.00000e-03
+ 1.93610e-07 0.00000e+00 1.95550e-07 0.00000e+00 1.95555e-07 1.00000e-03
+ 1.95605e-07 1.00000e-03 1.95610e-07 0.00000e+00 1.97550e-07 0.00000e+00
+ 1.97555e-07 1.00000e-03 1.97605e-07 1.00000e-03 1.97610e-07 0.00000e+00
+ 1.99550e-07 0.00000e+00 1.99555e-07 1.00000e-03 1.99605e-07 1.00000e-03
+ 1.99610e-07 0.00000e+00)
IIN2 0 IN2 PWL(0 0 20P 0 2.55000e-09 0.00000e+00 2.55500e-09 1.00000e-03 2.60500e-09 1.00000e-03
+ 2.61000e-09 0.00000e+00 3.55000e-09 0.00000e+00 3.55500e-09 1.00000e-03